<?xml version="1.0" encoding="UTF-8"?>
<additional><tlLogic id="10224707603" type="static" programID="1" offset="156"><phase duration="33" state="GGrr" /><phase duration="2" state="yyrr" /><phase duration="2" state="rrrr" /><phase duration="33" state="rrGG" /><phase duration="2" state="rryy" /><phase duration="2" state="rrrr" /></tlLogic><tlLogic id="10224707605" type="static" programID="1" offset="91"><phase duration="25" state="Grrrrrr" /><phase duration="3" state="yrrrrrr" /><phase duration="2" state="rrrrrrr" /><phase duration="25" state="rGrrrrr" /><phase duration="3" state="ryrrrrr" /><phase duration="2" state="rrrrrrr" /><phase duration="25" state="rrGrrrr" /><phase duration="3" state="rryrrrr" /><phase duration="2" state="rrrrrrr" /><phase duration="25" state="rrrGGGG" /><phase duration="3" state="rrryyyy" /><phase duration="2" state="rrrrrrr" /></tlLogic><tlLogic id="10224707606" type="static" programID="1" offset="60"><phase duration="29" state="Grrrrrr" /><phase duration="4" state="yrrrrrr" /><phase duration="1" state="rrrrrrr" /><phase duration="29" state="rGrrrrr" /><phase duration="4" state="ryrrrrr" /><phase duration="1" state="rrrrrrr" /><phase duration="29" state="rrGrrrr" /><phase duration="4" state="rryrrrr" /><phase duration="1" state="rrrrrrr" /><phase duration="29" state="rrrGGGG" /><phase duration="4" state="rrryyyy" /><phase duration="1" state="rrrrrrr" /></tlLogic><tlLogic id="10224707607" type="static" programID="1" offset="220"><phase duration="34" state="Grr" /><phase duration="4" state="yrr" /><phase duration="2" state="rrr" /><phase duration="34" state="rGr" /><phase duration="4" state="ryr" /><phase duration="2" state="rrr" /><phase duration="34" state="rrG" /><phase duration="4" state="rry" /><phase duration="2" state="rrr" /></tlLogic><tlLogic id="10224707611" type="static" programID="1" offset="49"><phase duration="27" state="Gr" /><phase duration="4" state="yr" /><phase duration="1" state="rr" /><phase duration="27" state="rG" /><phase duration="4" state="ry" /><phase duration="1" state="rr" /></tlLogic><tlLogic id="10224707612" type="static" programID="1" offset="10"><phase duration="33" state="Grrrrr" /><phase duration="4" state="yrrrrr" /><phase duration="2" state="rrrrrr" /><phase duration="33" state="rGrrrr" /><phase duration="4" state="ryrrrr" /><phase duration="2" state="rrrrrr" /><phase duration="33" state="rrGrrr" /><phase duration="4" state="rryrrr" /><phase duration="2" state="rrrrrr" /><phase duration="33" state="rrrGGG" /><phase duration="4" state="rrryyy" /><phase duration="2" state="rrrrrr" /></tlLogic><tlLogic id="10224707613" type="static" programID="1" offset="249"><phase duration="33" state="Grrrrrr" /><phase duration="4" state="yrrrrrr" /><phase duration="2" state="rrrrrrr" /><phase duration="33" state="rGrrrrr" /><phase duration="4" state="ryrrrrr" /><phase duration="2" state="rrrrrrr" /><phase duration="33" state="rrGrrrr" /><phase duration="4" state="rryrrrr" /><phase duration="2" state="rrrrrrr" /><phase duration="33" state="rrrGGGG" /><phase duration="4" state="rrryyyy" /><phase duration="2" state="rrrrrrr" /></tlLogic><tlLogic id="10224707614" type="static" programID="1" offset="71"><phase duration="31" state="Gr" /><phase duration="2" state="yr" /><phase duration="3" state="rr" /><phase duration="31" state="rG" /><phase duration="2" state="ry" /><phase duration="3" state="rr" /></tlLogic><tlLogic id="10224707615" type="static" programID="1" offset="147"><phase duration="29" state="Gr" /><phase duration="4" state="yr" /><phase duration="2" state="rr" /><phase duration="29" state="rG" /><phase duration="4" state="ry" /><phase duration="2" state="rr" /></tlLogic><tlLogic id="10224707616" type="static" programID="1" offset="231"><phase duration="27" state="Grrrrrr" /><phase duration="3" state="yrrrrrr" /><phase duration="3" state="rrrrrrr" /><phase duration="27" state="rGrrrrr" /><phase duration="3" state="ryrrrrr" /><phase duration="3" state="rrrrrrr" /><phase duration="27" state="rrGrrrr" /><phase duration="3" state="rryrrrr" /><phase duration="3" state="rrrrrrr" /><phase duration="27" state="rrrGGGG" /><phase duration="3" state="rrryyyy" /><phase duration="3" state="rrrrrrr" /></tlLogic><tlLogic id="10224712617" type="static" programID="1" offset="6"><phase duration="28" state="Grrrrrr" /><phase duration="2" state="yrrrrrr" /><phase duration="3" state="rrrrrrr" /><phase duration="28" state="rGrrrrr" /><phase duration="2" state="ryrrrrr" /><phase duration="3" state="rrrrrrr" /><phase duration="28" state="rrGrrrr" /><phase duration="2" state="rryrrrr" /><phase duration="3" state="rrrrrrr" /><phase duration="28" state="rrrGGGG" /><phase duration="2" state="rrryyyy" /><phase duration="3" state="rrrrrrr" /></tlLogic><tlLogic id="10224712618" type="static" programID="1" offset="27"><phase duration="26" state="Gr" /><phase duration="3" state="yr" /><phase duration="3" state="rr" /><phase duration="26" state="rG" /><phase duration="3" state="ry" /><phase duration="3" state="rr" /></tlLogic><tlLogic id="10224712619" type="static" programID="1" offset="35"><phase duration="35" state="Gr" /><phase duration="3" state="yr" /><phase duration="1" state="rr" /><phase duration="35" state="rG" /><phase duration="3" state="ry" /><phase duration="1" state="rr" /></tlLogic><tlLogic id="10224712620" type="static" programID="1" offset="291"><phase duration="34" state="Grrrrrr" /><phase duration="4" state="yrrrrrr" /><phase duration="2" state="rrrrrrr" /><phase duration="34" state="rGrrrrr" /><phase duration="4" state="ryrrrrr" /><phase duration="2" state="rrrrrrr" /><phase duration="34" state="rrGrrrr" /><phase duration="4" state="rryrrrr" /><phase duration="2" state="rrrrrrr" /><phase duration="34" state="rrrGGGG" /><phase duration="4" state="rrryyyy" /><phase duration="2" state="rrrrrrr" /></tlLogic><tlLogic id="10224712621" type="static" programID="1" offset="247"><phase duration="32" state="GGrrrrrr" /><phase duration="4" state="yyrrrrrr" /><phase duration="1" state="rrrrrrrr" /><phase duration="32" state="rrGGrrrr" /><phase duration="4" state="rryyrrrr" /><phase duration="1" state="rrrrrrrr" /><phase duration="32" state="rrrrGGrr" /><phase duration="4" state="rrrryyrr" /><phase duration="1" state="rrrrrrrr" /><phase duration="32" state="rrrrrrGG" /><phase duration="4" state="rrrrrryy" /><phase duration="1" state="rrrrrrrr" /></tlLogic><tlLogic id="10224712622" type="static" programID="1" offset="69"><phase duration="33" state="Grr" /><phase duration="4" state="yrr" /><phase duration="3" state="rrr" /><phase duration="33" state="rGr" /><phase duration="4" state="ryr" /><phase duration="3" state="rrr" /><phase duration="33" state="rrG" /><phase duration="4" state="rry" /><phase duration="3" state="rrr" /></tlLogic><tlLogic id="10224712623" type="static" programID="1" offset="152"><phase duration="25" state="Grr" /><phase duration="2" state="yrr" /><phase duration="2" state="rrr" /><phase duration="25" state="rGr" /><phase duration="2" state="ryr" /><phase duration="2" state="rrr" /><phase duration="25" state="rrG" /><phase duration="2" state="rry" /><phase duration="2" state="rrr" /></tlLogic><tlLogic id="10224712624" type="static" programID="1" offset="162"><phase duration="31" state="Grr" /><phase duration="2" state="yrr" /><phase duration="2" state="rrr" /><phase duration="31" state="rGr" /><phase duration="2" state="ryr" /><phase duration="2" state="rrr" /><phase duration="31" state="rrG" /><phase duration="2" state="rry" /><phase duration="2" state="rrr" /></tlLogic><tlLogic id="10224712627" type="static" programID="1" offset="204"><phase duration="26" state="Gr" /><phase duration="2" state="yr" /><phase duration="1" state="rr" /><phase duration="26" state="rG" /><phase duration="2" state="ry" /><phase duration="1" state="rr" /></tlLogic><tlLogic id="10224712628" type="static" programID="1" offset="164"><phase duration="35" state="GGrr" /><phase duration="4" state="yyrr" /><phase duration="3" state="rrrr" /><phase duration="35" state="rrGG" /><phase duration="4" state="rryy" /><phase duration="3" state="rrrr" /></tlLogic><tlLogic id="10224712629" type="static" programID="1" offset="296"><phase duration="25" state="G" /><phase duration="2" state="y" /><phase duration="1" state="r" /><phase duration="25" state="r" /><phase duration="2" state="r" /><phase duration="1" state="r" /><phase duration="25" state="r" /><phase duration="2" state="r" /><phase duration="1" state="r" /><phase duration="25" state="r" /><phase duration="2" state="r" /><phase duration="1" state="r" /></tlLogic><tlLogic id="10229646455" type="static" programID="1" offset="248"><phase duration="26" state="Grrrrr" /><phase duration="4" state="yrrrrr" /><phase duration="2" state="rrrrrr" /><phase duration="26" state="rGrrrr" /><phase duration="4" state="ryrrrr" /><phase duration="2" state="rrrrrr" /><phase duration="26" state="rrGrrr" /><phase duration="4" state="rryrrr" /><phase duration="2" state="rrrrrr" /><phase duration="26" state="rrrGGG" /><phase duration="4" state="rrryyy" /><phase duration="2" state="rrrrrr" /></tlLogic><tlLogic id="10229646456" type="static" programID="1" offset="14"><phase duration="25" state="Grrrrr" /><phase duration="3" state="yrrrrr" /><phase duration="1" state="rrrrrr" /><phase duration="25" state="rGrrrr" /><phase duration="3" state="ryrrrr" /><phase duration="1" state="rrrrrr" /><phase duration="25" state="rrGrrr" /><phase duration="3" state="rryrrr" /><phase duration="1" state="rrrrrr" /><phase duration="25" state="rrrGGG" /><phase duration="3" state="rrryyy" /><phase duration="1" state="rrrrrr" /></tlLogic><tlLogic id="10229646457" type="static" programID="1" offset="281"><phase duration="27" state="Grrrrrr" /><phase duration="4" state="yrrrrrr" /><phase duration="2" state="rrrrrrr" /><phase duration="27" state="rGrrrrr" /><phase duration="4" state="ryrrrrr" /><phase duration="2" state="rrrrrrr" /><phase duration="27" state="rrGrrrr" /><phase duration="4" state="rryrrrr" /><phase duration="2" state="rrrrrrr" /><phase duration="27" state="rrrGGGG" /><phase duration="4" state="rrryyyy" /><phase duration="2" state="rrrrrrr" /></tlLogic><tlLogic id="10229646458" type="static" programID="1" offset="137"><phase duration="26" state="GGrr" /><phase duration="4" state="yyrr" /><phase duration="1" state="rrrr" /><phase duration="26" state="rrGG" /><phase duration="4" state="rryy" /><phase duration="1" state="rrrr" /></tlLogic><tlLogic id="10229646460" type="static" programID="1" offset="196"><phase duration="30" state="GGrr" /><phase duration="2" state="yyrr" /><phase duration="2" state="rrrr" /><phase duration="30" state="rrGG" /><phase duration="2" state="rryy" /><phase duration="2" state="rrrr" /></tlLogic><tlLogic id="10229646461" type="static" programID="1" offset="211"><phase duration="29" state="Gr" /><phase duration="3" state="yr" /><phase duration="2" state="rr" /><phase duration="29" state="rG" /><phase duration="3" state="ry" /><phase duration="2" state="rr" /></tlLogic><tlLogic id="10229646462" type="static" programID="1" offset="125"><phase duration="33" state="Grr" /><phase duration="3" state="yrr" /><phase duration="3" state="rrr" /><phase duration="33" state="rGr" /><phase duration="3" state="ryr" /><phase duration="3" state="rrr" /><phase duration="33" state="rrG" /><phase duration="3" state="rry" /><phase duration="3" state="rrr" /></tlLogic><tlLogic id="10229646463" type="static" programID="1" offset="197"><phase duration="32" state="Grrrr" /><phase duration="4" state="yrrrr" /><phase duration="1" state="rrrrr" /><phase duration="32" state="rGrrr" /><phase duration="4" state="ryrrr" /><phase duration="1" state="rrrrr" /><phase duration="32" state="rrGrr" /><phase duration="4" state="rryrr" /><phase duration="1" state="rrrrr" /><phase duration="32" state="rrrGG" /><phase duration="4" state="rrryy" /><phase duration="1" state="rrrrr" /></tlLogic><tlLogic id="10229646464" type="static" programID="1" offset="46"><phase duration="35" state="Grrrr" /><phase duration="4" state="yrrrr" /><phase duration="1" state="rrrrr" /><phase duration="35" state="rGrrr" /><phase duration="4" state="ryrrr" /><phase duration="1" state="rrrrr" /><phase duration="35" state="rrGrr" /><phase duration="4" state="rryrr" /><phase duration="1" state="rrrrr" /><phase duration="35" state="rrrGG" /><phase duration="4" state="rrryy" /><phase duration="1" state="rrrrr" /></tlLogic><tlLogic id="10229646465" type="static" programID="1" offset="110"><phase duration="33" state="Gr" /><phase duration="4" state="yr" /><phase duration="1" state="rr" /><phase duration="33" state="rG" /><phase duration="4" state="ry" /><phase duration="1" state="rr" /></tlLogic><tlLogic id="10229646466" type="static" programID="1" offset="140"><phase duration="26" state="Grr" /><phase duration="3" state="yrr" /><phase duration="2" state="rrr" /><phase duration="26" state="rGr" /><phase duration="3" state="ryr" /><phase duration="2" state="rrr" /><phase duration="26" state="rrG" /><phase duration="3" state="rry" /><phase duration="2" state="rrr" /></tlLogic><tlLogic id="10229646467" type="static" programID="1" offset="169"><phase duration="27" state="Grr" /><phase duration="4" state="yrr" /><phase duration="3" state="rrr" /><phase duration="27" state="rGr" /><phase duration="4" state="ryr" /><phase duration="3" state="rrr" /><phase duration="27" state="rrG" /><phase duration="4" state="rry" /><phase duration="3" state="rrr" /></tlLogic><tlLogic id="10229646468" type="static" programID="1" offset="218"><phase duration="30" state="Gr" /><phase duration="3" state="yr" /><phase duration="1" state="rr" /><phase duration="30" state="rG" /><phase duration="3" state="ry" /><phase duration="1" state="rr" /></tlLogic><tlLogic id="10229646469" type="static" programID="1" offset="30"><phase duration="31" state="Grrrr" /><phase duration="3" state="yrrrr" /><phase duration="3" state="rrrrr" /><phase duration="31" state="rGrrr" /><phase duration="3" state="ryrrr" /><phase duration="3" state="rrrrr" /><phase duration="31" state="rrGrr" /><phase duration="3" state="rryrr" /><phase duration="3" state="rrrrr" /><phase duration="31" state="rrrGG" /><phase duration="3" state="rrryy" /><phase duration="3" state="rrrrr" /></tlLogic><tlLogic id="10229646470" type="static" programID="1" offset="124"><phase duration="33" state="Gr" /><phase duration="3" state="yr" /><phase duration="3" state="rr" /><phase duration="33" state="rG" /><phase duration="3" state="ry" /><phase duration="3" state="rr" /></tlLogic><tlLogic id="10229646471" type="static" programID="1" offset="26"><phase duration="30" state="Grr" /><phase duration="3" state="yrr" /><phase duration="3" state="rrr" /><phase duration="30" state="rGr" /><phase duration="3" state="ryr" /><phase duration="3" state="rrr" /><phase duration="30" state="rrG" /><phase duration="3" state="rry" /><phase duration="3" state="rrr" /></tlLogic><tlLogic id="10229646472" type="static" programID="1" offset="214"><phase duration="28" state="Grrrr" /><phase duration="2" state="yrrrr" /><phase duration="3" state="rrrrr" /><phase duration="28" state="rGrrr" /><phase duration="2" state="ryrrr" /><phase duration="3" state="rrrrr" /><phase duration="28" state="rrGrr" /><phase duration="2" state="rryrr" /><phase duration="3" state="rrrrr" /><phase duration="28" state="rrrGG" /><phase duration="2" state="rrryy" /><phase duration="3" state="rrrrr" /></tlLogic><tlLogic id="10229646473" type="static" programID="1" offset="103"><phase duration="25" state="Gr" /><phase duration="2" state="yr" /><phase duration="2" state="rr" /><phase duration="25" state="rG" /><phase duration="2" state="ry" /><phase duration="2" state="rr" /></tlLogic><tlLogic id="10229646474" type="static" programID="1" offset="64"><phase duration="32" state="Grr" /><phase duration="3" state="yrr" /><phase duration="3" state="rrr" /><phase duration="32" state="rGr" /><phase duration="3" state="ryr" /><phase duration="3" state="rrr" /><phase duration="32" state="rrG" /><phase duration="3" state="rry" /><phase duration="3" state="rrr" /></tlLogic><tlLogic id="10229646476" type="static" programID="1" offset="144"><phase duration="31" state="Gr" /><phase duration="2" state="yr" /><phase duration="3" state="rr" /><phase duration="31" state="rG" /><phase duration="2" state="ry" /><phase duration="3" state="rr" /></tlLogic><tlLogic id="10229646477" type="static" programID="1" offset="244"><phase duration="26" state="Grr" /><phase duration="2" state="yrr" /><phase duration="3" state="rrr" /><phase duration="26" state="rGr" /><phase duration="2" state="ryr" /><phase duration="3" state="rrr" /><phase duration="26" state="rrG" /><phase duration="2" state="rry" /><phase duration="3" state="rrr" /></tlLogic><tlLogic id="10229646478" type="static" programID="1" offset="223"><phase duration="34" state="Gr" /><phase duration="3" state="yr" /><phase duration="2" state="rr" /><phase duration="34" state="rG" /><phase duration="3" state="ry" /><phase duration="2" state="rr" /></tlLogic><tlLogic id="10229646479" type="static" programID="1" offset="218"><phase duration="34" state="Grr" /><phase duration="2" state="yrr" /><phase duration="2" state="rrr" /><phase duration="34" state="rGr" /><phase duration="2" state="ryr" /><phase duration="2" state="rrr" /><phase duration="34" state="rrG" /><phase duration="2" state="rry" /><phase duration="2" state="rrr" /></tlLogic><tlLogic id="10229646480" type="static" programID="1" offset="209"><phase duration="33" state="Gr" /><phase duration="3" state="yr" /><phase duration="2" state="rr" /><phase duration="33" state="rG" /><phase duration="3" state="ry" /><phase duration="2" state="rr" /></tlLogic><tlLogic id="10229646481" type="static" programID="1" offset="107"><phase duration="29" state="Gr" /><phase duration="2" state="yr" /><phase duration="2" state="rr" /><phase duration="29" state="rG" /><phase duration="2" state="ry" /><phase duration="2" state="rr" /></tlLogic><tlLogic id="10229646482" type="static" programID="1" offset="280"><phase duration="25" state="Grrrr" /><phase duration="4" state="yrrrr" /><phase duration="2" state="rrrrr" /><phase duration="25" state="rGrrr" /><phase duration="4" state="ryrrr" /><phase duration="2" state="rrrrr" /><phase duration="25" state="rrGrr" /><phase duration="4" state="rryrr" /><phase duration="2" state="rrrrr" /><phase duration="25" state="rrrGG" /><phase duration="4" state="rrryy" /><phase duration="2" state="rrrrr" /></tlLogic><tlLogic id="10229646483" type="static" programID="1" offset="32"><phase duration="31" state="Grrrr" /><phase duration="4" state="yrrrr" /><phase duration="3" state="rrrrr" /><phase duration="31" state="rGrrr" /><phase duration="4" state="ryrrr" /><phase duration="3" state="rrrrr" /><phase duration="31" state="rrGrr" /><phase duration="4" state="rryrr" /><phase duration="3" state="rrrrr" /><phase duration="31" state="rrrGG" /><phase duration="4" state="rrryy" /><phase duration="3" state="rrrrr" /></tlLogic><tlLogic id="10229646484" type="static" programID="1" offset="149"><phase duration="26" state="Grr" /><phase duration="4" state="yrr" /><phase duration="3" state="rrr" /><phase duration="26" state="rGr" /><phase duration="4" state="ryr" /><phase duration="3" state="rrr" /><phase duration="26" state="rrG" /><phase duration="4" state="rry" /><phase duration="3" state="rrr" /></tlLogic><tlLogic id="10229646485" type="static" programID="1" offset="230"><phase duration="28" state="Gr" /><phase duration="3" state="yr" /><phase duration="3" state="rr" /><phase duration="28" state="rG" /><phase duration="3" state="ry" /><phase duration="3" state="rr" /></tlLogic><tlLogic id="10229646486" type="static" programID="1" offset="210"><phase duration="34" state="Grr" /><phase duration="2" state="yrr" /><phase duration="3" state="rrr" /><phase duration="34" state="rGr" /><phase duration="2" state="ryr" /><phase duration="3" state="rrr" /><phase duration="34" state="rrG" /><phase duration="2" state="rry" /><phase duration="3" state="rrr" /></tlLogic><tlLogic id="10229646487" type="static" programID="1" offset="112"><phase duration="25" state="Gr" /><phase duration="2" state="yr" /><phase duration="2" state="rr" /><phase duration="25" state="rG" /><phase duration="2" state="ry" /><phase duration="2" state="rr" /></tlLogic><tlLogic id="10229646488" type="static" programID="1" offset="279"><phase duration="34" state="Gr" /><phase duration="4" state="yr" /><phase duration="1" state="rr" /><phase duration="34" state="rG" /><phase duration="4" state="ry" /><phase duration="1" state="rr" /></tlLogic><tlLogic id="10229646489" type="static" programID="1" offset="259"><phase duration="27" state="Gr" /><phase duration="4" state="yr" /><phase duration="2" state="rr" /><phase duration="27" state="rG" /><phase duration="4" state="ry" /><phase duration="2" state="rr" /></tlLogic><tlLogic id="10229646490" type="static" programID="1" offset="23"><phase duration="25" state="Gr" /><phase duration="2" state="yr" /><phase duration="3" state="rr" /><phase duration="25" state="rG" /><phase duration="2" state="ry" /><phase duration="3" state="rr" /></tlLogic><tlLogic id="10229646491" type="static" programID="1" offset="274"><phase duration="28" state="Grr" /><phase duration="4" state="yrr" /><phase duration="1" state="rrr" /><phase duration="28" state="rGr" /><phase duration="4" state="ryr" /><phase duration="1" state="rrr" /><phase duration="28" state="rrG" /><phase duration="4" state="rry" /><phase duration="1" state="rrr" /></tlLogic><tlLogic id="10229646492" type="static" programID="1" offset="223"><phase duration="27" state="Gr" /><phase duration="4" state="yr" /><phase duration="1" state="rr" /><phase duration="27" state="rG" /><phase duration="4" state="ry" /><phase duration="1" state="rr" /></tlLogic><tlLogic id="10647905672" type="static" programID="1" offset="85"><phase duration="29" state="Grrrrrr" /><phase duration="4" state="yrrrrrr" /><phase duration="2" state="rrrrrrr" /><phase duration="29" state="rGrrrrr" /><phase duration="4" state="ryrrrrr" /><phase duration="2" state="rrrrrrr" /><phase duration="29" state="rrGrrrr" /><phase duration="4" state="rryrrrr" /><phase duration="2" state="rrrrrrr" /><phase duration="29" state="rrrGGGG" /><phase duration="4" state="rrryyyy" /><phase duration="2" state="rrrrrrr" /></tlLogic><tlLogic id="10647905676" type="static" programID="1" offset="3"><phase duration="26" state="GGrr" /><phase duration="3" state="yyrr" /><phase duration="3" state="rrrr" /><phase duration="26" state="rrGG" /><phase duration="3" state="rryy" /><phase duration="3" state="rrrr" /></tlLogic><tlLogic id="10647905677" type="static" programID="1" offset="276"><phase duration="35" state="Grrrrr" /><phase duration="2" state="yrrrrr" /><phase duration="2" state="rrrrrr" /><phase duration="35" state="rGrrrr" /><phase duration="2" state="ryrrrr" /><phase duration="2" state="rrrrrr" /><phase duration="35" state="rrGrrr" /><phase duration="2" state="rryrrr" /><phase duration="2" state="rrrrrr" /><phase duration="35" state="rrrGGG" /><phase duration="2" state="rrryyy" /><phase duration="2" state="rrrrrr" /></tlLogic><tlLogic id="10647905678" type="static" programID="1" offset="33"><phase duration="33" state="Grrrr" /><phase duration="2" state="yrrrr" /><phase duration="1" state="rrrrr" /><phase duration="33" state="rGrrr" /><phase duration="2" state="ryrrr" /><phase duration="1" state="rrrrr" /><phase duration="33" state="rrGrr" /><phase duration="2" state="rryrr" /><phase duration="1" state="rrrrr" /><phase duration="33" state="rrrGG" /><phase duration="2" state="rrryy" /><phase duration="1" state="rrrrr" /></tlLogic><tlLogic id="10927932582" type="static" programID="1" offset="27"><phase duration="27" state="GGrrrrrrrrr" /><phase duration="3" state="yyrrrrrrrrr" /><phase duration="1" state="rrrrrrrrrrr" /><phase duration="27" state="rrGGrrrrrrr" /><phase duration="3" state="rryyrrrrrrr" /><phase duration="1" state="rrrrrrrrrrr" /><phase duration="27" state="rrrrGGrrrrr" /><phase duration="3" state="rrrryyrrrrr" /><phase duration="1" state="rrrrrrrrrrr" /><phase duration="27" state="rrrrrrGGGGG" /><phase duration="3" state="rrrrrryyyyy" /><phase duration="1" state="rrrrrrrrrrr" /></tlLogic><tlLogic id="10981997129" type="static" programID="1" offset="214"><phase duration="30" state="GGrr" /><phase duration="2" state="yyrr" /><phase duration="3" state="rrrr" /><phase duration="30" state="rrGG" /><phase duration="2" state="rryy" /><phase duration="3" state="rrrr" /></tlLogic><tlLogic id="10981997156" type="static" programID="1" offset="58"><phase duration="27" state="Gr" /><phase duration="3" state="yr" /><phase duration="2" state="rr" /><phase duration="27" state="rG" /><phase duration="3" state="ry" /><phase duration="2" state="rr" /></tlLogic><tlLogic id="10981997165" type="static" programID="1" offset="208"><phase duration="34" state="GGrr" /><phase duration="2" state="yyrr" /><phase duration="3" state="rrrr" /><phase duration="34" state="rrGG" /><phase duration="2" state="rryy" /><phase duration="3" state="rrrr" /></tlLogic><tlLogic id="10981997166" type="static" programID="1" offset="184"><phase duration="33" state="Grrrr" /><phase duration="3" state="yrrrr" /><phase duration="3" state="rrrrr" /><phase duration="33" state="rGrrr" /><phase duration="3" state="ryrrr" /><phase duration="3" state="rrrrr" /><phase duration="33" state="rrGrr" /><phase duration="3" state="rryrr" /><phase duration="3" state="rrrrr" /><phase duration="33" state="rrrGG" /><phase duration="3" state="rrryy" /><phase duration="3" state="rrrrr" /></tlLogic><tlLogic id="10981997167" type="static" programID="1" offset="273"><phase duration="30" state="Grr" /><phase duration="4" state="yrr" /><phase duration="1" state="rrr" /><phase duration="30" state="rGr" /><phase duration="4" state="ryr" /><phase duration="1" state="rrr" /><phase duration="30" state="rrG" /><phase duration="4" state="rry" /><phase duration="1" state="rrr" /></tlLogic><tlLogic id="10981997185" type="static" programID="1" offset="63"><phase duration="25" state="Grrrr" /><phase duration="3" state="yrrrr" /><phase duration="2" state="rrrrr" /><phase duration="25" state="rGrrr" /><phase duration="3" state="ryrrr" /><phase duration="2" state="rrrrr" /><phase duration="25" state="rrGrr" /><phase duration="3" state="rryrr" /><phase duration="2" state="rrrrr" /><phase duration="25" state="rrrGG" /><phase duration="3" state="rrryy" /><phase duration="2" state="rrrrr" /></tlLogic><tlLogic id="10981997187" type="static" programID="1" offset="92"><phase duration="28" state="Grrrr" /><phase duration="3" state="yrrrr" /><phase duration="3" state="rrrrr" /><phase duration="28" state="rGrrr" /><phase duration="3" state="ryrrr" /><phase duration="3" state="rrrrr" /><phase duration="28" state="rrGrr" /><phase duration="3" state="rryrr" /><phase duration="3" state="rrrrr" /><phase duration="28" state="rrrGG" /><phase duration="3" state="rrryy" /><phase duration="3" state="rrrrr" /></tlLogic><tlLogic id="11048229781" type="static" programID="1" offset="295"><phase duration="27" state="Gr" /><phase duration="4" state="yr" /><phase duration="2" state="rr" /><phase duration="27" state="rG" /><phase duration="4" state="ry" /><phase duration="2" state="rr" /></tlLogic><tlLogic id="11048229782" type="static" programID="1" offset="151"><phase duration="34" state="GGrr" /><phase duration="3" state="yyrr" /><phase duration="2" state="rrrr" /><phase duration="34" state="rrGG" /><phase duration="3" state="rryy" /><phase duration="2" state="rrrr" /></tlLogic><tlLogic id="11048229783" type="static" programID="1" offset="293"><phase duration="33" state="Grrrr" /><phase duration="4" state="yrrrr" /><phase duration="1" state="rrrrr" /><phase duration="33" state="rGrrr" /><phase duration="4" state="ryrrr" /><phase duration="1" state="rrrrr" /><phase duration="33" state="rrGrr" /><phase duration="4" state="rryrr" /><phase duration="1" state="rrrrr" /><phase duration="33" state="rrrGG" /><phase duration="4" state="rrryy" /><phase duration="1" state="rrrrr" /></tlLogic><tlLogic id="11084341261" type="static" programID="1" offset="214"><phase duration="32" state="Grrrr" /><phase duration="2" state="yrrrr" /><phase duration="1" state="rrrrr" /><phase duration="32" state="rGrrr" /><phase duration="2" state="ryrrr" /><phase duration="1" state="rrrrr" /><phase duration="32" state="rrGrr" /><phase duration="2" state="rryrr" /><phase duration="1" state="rrrrr" /><phase duration="32" state="rrrGG" /><phase duration="2" state="rrryy" /><phase duration="1" state="rrrrr" /></tlLogic><tlLogic id="11084341262" type="static" programID="1" offset="99"><phase duration="25" state="Grrrr" /><phase duration="4" state="yrrrr" /><phase duration="2" state="rrrrr" /><phase duration="25" state="rGrrr" /><phase duration="4" state="ryrrr" /><phase duration="2" state="rrrrr" /><phase duration="25" state="rrGrr" /><phase duration="4" state="rryrr" /><phase duration="2" state="rrrrr" /><phase duration="25" state="rrrGG" /><phase duration="4" state="rrryy" /><phase duration="2" state="rrrrr" /></tlLogic><tlLogic id="11086015138" type="static" programID="1" offset="236"><phase duration="31" state="Grr" /><phase duration="2" state="yrr" /><phase duration="3" state="rrr" /><phase duration="31" state="rGr" /><phase duration="2" state="ryr" /><phase duration="3" state="rrr" /><phase duration="31" state="rrG" /><phase duration="2" state="rry" /><phase duration="3" state="rrr" /></tlLogic><tlLogic id="11086015139" type="static" programID="1" offset="106"><phase duration="26" state="GGrr" /><phase duration="3" state="yyrr" /><phase duration="3" state="rrrr" /><phase duration="26" state="rrGG" /><phase duration="3" state="rryy" /><phase duration="3" state="rrrr" /></tlLogic><tlLogic id="11086704625" type="static" programID="1" offset="157"><phase duration="33" state="GGrr" /><phase duration="2" state="yyrr" /><phase duration="1" state