<?xml version="1.0" encoding="UTF-8"?>
<additional><tlLogic id="10224707603" type="static" programID="1" offset="0"><phase duration="20" state="GGGG" /><phase duration="3" state="rrGG" /><phase duration="20" state="rrGG" /></tlLogic><tlLogic id="10224707605" type="static" programID="1" offset="0"><phase duration="20" state="GGGGGGG" /><phase duration="3" state="rrrrGGG" /><phase duration="20" state="rrrrGGG" /></tlLogic><tlLogic id="10224707606" type="static" programID="1" offset="0"><phase duration="20" state="GGGGGGG" /><phase duration="3" state="rrrrGGG" /><phase duration="20" state="rrrrGGG" /></tlLogic><tlLogic id="10224707607" type="static" programID="1" offset="0"><phase duration="20" state="GGG" /><phase duration="3" state="rrG" /><phase duration="20" state="rrG" /></tlLogic><tlLogic id="10224707611" type="static" programID="1" offset="0"><phase duration="20" state="GG" /><phase duration="3" state="rG" /><phase duration="20" state="rG" /></tlLogic><tlLogic id="10224707612" type="static" programID="1" offset="0"><phase duration="20" state="GGGGGG" /><phase duration="3" state="rrrrGG" /><phase duration="20" state="rrrrGG" /></tlLogic><tlLogic id="10224707613" type="static" programID="1" offset="0"><phase duration="20" state="GGGGGGG" /><phase duration="3" state="rrrrGGG" /><phase duration="20" state="rrrrGGG" /></tlLogic><tlLogic id="10224707614" type="static" programID="1" offset="0"><phase duration="20" state="GG" /><phase duration="3" state="rG" /><phase duration="20" state="rG" /></tlLogic><tlLogic id="10224707615" type="static" programID="1" offset="0"><phase duration="20" state="GG" /><phase duration="3" state="rG" /><phase duration="20" state="rG" /></tlLogic><tlLogic id="10224707616" type="static" programID="1" offset="0"><phase duration="20" state="GGGGGGG" /><phase duration="3" state="rrrrGGG" /><phase duration="20" state="rrrrGGG" /></tlLogic><tlLogic id="10224712617" type="static" programID="1" offset="0"><phase duration="20" state="GGGGGGG" /><phase duration="3" state="rrrrGGG" /><phase duration="20" state="rrrrGGG" /></tlLogic><tlLogic id="10224712618" type="static" programID="1" offset="0"><phase duration="20" state="GG" /><phase duration="3" state="rG" /><phase duration="20" state="rG" /></tlLogic><tlLogic id="10224712619" type="static" programID="1" offset="0"><phase duration="20" state="GG" /><phase duration="3" state="rG" /><phase duration="20" state="rG" /></tlLogic><tlLogic id="10224712620" type="static" programID="1" offset="0"><phase duration="20" state="GGGGGGG" /><phase duration="3" state="rrrrGGG" /><phase duration="20" state="rrrrGGG" /></tlLogic><tlLogic id="10224712621" type="static" programID="1" offset="0"><phase duration="20" state="GGGGGGGG" /><phase duration="3" state="rrrrrGGG" /><phase duration="20" state="rrrrrGGG" /></tlLogic><tlLogic id="10224712622" type="static" programID="1" offset="0"><phase duration="20" state="GGG" /><phase duration="3" state="rrG" /><phase duration="20" state="rrG" /></tlLogic><tlLogic id="10224712623" type="static" programID="1" offset="0"><phase duration="20" state="GGG" /><phase duration="3" state="rrG" /><phase duration="20" state="rrG" /></tlLogic><tlLogic id="10224712624" type="static" programID="1" offset="0"><phase duration="20" state="GGG" /><phase duration="3" state="rrG" /><phase duration="20" state="rrG" /></tlLogic><tlLogic id="10224712627" type="static" programID="1" offset="0"><phase duration="20" state="GG" /><phase duration="3" state="rG" /><phase duration="20" state="rG" /></tlLogic><tlLogic id="10224712628" type="static" programID="1" offset="0"><phase duration="20" state="GGGG" /><phase duration="3" state="rrGG" /><phase duration="20" state="rrGG" /></tlLogic><tlLogic id="10224712629" type="static" programID="1" offset="0"><phase duration="20" state="G" /><phase duration="3" state="G" /><phase duration="20" state="G" /></tlLogic><tlLogic id="10229646455" type="static" programID="1" offset="0"><phase duration="20" state="GGGGGG" /><phase duration="3" state="rrrrGG" /><phase duration="20" state="rrrrGG" /></tlLogic><tlLogic id="10229646456" type="static" programID="1" offset="0"><phase duration="20" state="GGGGGG" /><phase duration="3" state="rrrrGG" /><phase duration="20" state="rrrrGG" /></tlLogic><tlLogic id="10229646457" type="static" programID="1" offset="0"><phase duration="20" state="GGGGGGG" /><phase duration="3" state="rrrrGGG" /><phase duration="20" state="rrrrGGG" /></tlLogic><tlLogic id="10229646458" type="static" programID="1" offset="0"><phase duration="20" state="GGGG" /><phase duration="3" state="rrGG" /><phase duration="20" state="rrGG" /></tlLogic><tlLogic id="10229646460" type="static" programID="1" offset="0"><phase duration="20" state="GGGG" /><phase duration="3" state="rrGG" /><phase duration="20" state="rrGG" /></tlLogic><tlLogic id="10229646461" type="static" programID="1" offset="0"><phase duration="20" state="GG" /><phase duration="3" state="rG" /><phase duration="20" state="rG" /></tlLogic><tlLogic id="10229646462" type="static" programID="1" offset="0"><phase duration="20" state="GGG" /><phase duration="3" state="rrG" /><phase duration="20" state="rrG" /></tlLogic><tlLogic id="10229646463" type="static" programID="1" offset="0"><phase duration="20" state="GGGGG" /><phase duration="3" state="rrrGG" /><phase duration="20" state="rrrGG" /></tlLogic><tlLogic id="10229646464" type="static" programID="1" offset="0"><phase duration="20" state="GGGGG" /><phase duration="3" state="rrrGG" /><phase duration="20" state="rrrGG" /></tlLogic><tlLogic id="10229646465" type="static" programID="1" offset="0"><phase duration="20" state="GG" /><phase duration="3" state="rG" /><phase duration="20" state="rG" /></tlLogic><tlLogic id="10229646466" type="static" programID="1" offset="0"><phase duration="20" state="GGG" /><phase duration="3" state="rrG" /><phase duration="20" state="rrG" /></tlLogic><tlLogic id="10229646467" type="static" programID="1" offset="0"><phase duration="20" state="GGG" /><phase duration="3" state="rrG" /><phase duration="20" state="rrG" /></tlLogic><tlLogic id="10229646468" type="static" programID="1" offset="0"><phase duration="20" state="GG" /><phase duration="3" state="rG" /><phase duration="20" state="rG" /></tlLogic><tlLogic id="10229646469" type="static" programID="1" offset="0"><phase duration="20" state="GGGGG" /><phase duration="3" state="rrrGG" /><phase duration="20" state="rrrGG" /></tlLogic><tlLogic id="10229646470" type="static" programID="1" offset="0"><phase duration="20" state="GG" /><phase duration="3" state="rG" /><phase duration="20" state="rG" /></tlLogic><tlLogic id="10229646471" type="static" programID="1" offset="0"><phase duration="20" state="GGG" /><phase duration="3" state="rrG" /><phase duration="20" state="rrG" /></tlLogic><tlLogic id="10229646472" type="static" programID="1" offset="0"><phase duration="20" state="GGGGG" /><phase duration="3" state="rrrGG" /><phase duration="20" state="rrrGG" /></tlLogic><tlLogic id="10229646473" type="static" programID="1" offset="0"><phase duration="20" state="GG" /><phase duration="3" state="rG" /><phase duration="20" state="rG" /></tlLogic><tlLogic id="10229646474" type="static" programID="1" offset="0"><phase duration="20" state="GGG" /><phase duration="3" state="rrG" /><phase duration="20" state="rrG" /></tlLogic><tlLogic id="10229646476" type="static" programID="1" offset="0"><phase duration="20" state="GG" /><phase duration="3" state="rG" /><phase duration="20" state="rG" /></tlLogic><tlLogic id="10229646477" type="static" programID="1" offset="0"><phase duration="20" state="GGG" /><phase duration="3" state="rrG" /><phase duration="20" state="rrG" /></tlLogic><tlLogic id="10229646478" type="static" programID="1" offset="0"><phase duration="20" state="GG" /><phase duration="3" state="rG" /><phase duration="20" state="rG" /></tlLogic><tlLogic id="10229646479" type="static" programID="1" offset="0"><phase duration="20" state="GGG" /><phase duration="3" state="rrG" /><phase duration="20" state="rrG" /></tlLogic><tlLogic id="10229646480" type="static" programID="1" offset="0"><phase duration="20" state="GG" /><phase duration="3" state="rG" /><phase duration="20" state="rG" /></tlLogic><tlLogic id="10229646481" type="static" programID="1" offset="0"><phase duration="20" state="GG" /><phase duration="3" state="rG" /><phase duration="20" state="rG" /></tlLogic><tlLogic id="10229646482" type="static" programID="1" offset="0"><phase duration="20" state="GGGGG" /><phase duration="3" state="rrrGG" /><phase duration="20" state="rrrGG" /></tlLogic><tlLogic id="10229646483" type="static" programID="1" offset="0"><phase duration="20" state="GGGGG" /><phase duration="3" state="rrrGG" /><phase duration="20" state="rrrGG" /></tlLogic><tlLogic id="10229646484" type="static" programID="1" offset="0"><phase duration="20" state="GGG" /><phase duration="3" state="rrG" /><phase duration="20" state="rrG" /></tlLogic><tlLogic id="10229646485" type="static" programID="1" offset="0"><phase duration="20" state="GG" /><phase duration="3" state="rG" /><phase duration="20" state="rG" /></tlLogic><tlLogic id="10229646486" type="static" programID="1" offset="0"><phase duration="20" state="GGG" /><phase duration="3" state="rrG" /><phase duration="20" state="rrG" /></tlLogic><tlLogic id="10229646487" type="static" programID="1" offset="0"><phase duration="20" state="GG" /><phase duration="3" state="rG" /><phase duration="20" state="rG" /></tlLogic><tlLogic id="10229646488" type="static" programID="1" offset="0"><phase duration="20" state="GG" /><phase duration="3" state="rG" /><phase duration="20" state="rG" /></tlLogic><tlLogic id="10229646489" type="static" programID="1" offset="0"><phase duration="20" state="GG" /><phase duration="3" state="rG" /><phase duration="20" state="rG" /></tlLogic><tlLogic id="10229646490" type="static" programID="1" offset="0"><phase duration="20" state="GG" /><phase duration="3" state="rG" /><phase duration="20" state="rG" /></tlLogic><tlLogic id="10229646491" type="static" programID="1" offset="0"><phase duration="20" state="GGG" /><phase duration="3" state="rrG" /><phase duration="20" state="rrG" /></tlLogic><tlLogic id="10229646492" type="static" programID="1" offset="0"><phase duration="20" state="GG" /><phase duration="3" state="rG" /><phase duration="20" state="rG" /></tlLogic><tlLogic id="10647905672" type="static" programID="1" offset="0"><phase duration="20" state="GGGGGGG" /><phase duration="3" state="rrrrGGG" /><phase duration="20" state="rrrrGGG" /></tlLogic><tlLogic id="10647905676" type="static" programID="1" offset="0"><phase duration="20" state="GGGG" /><phase duration="3" state="rrGG" /><phase duration="20" state="rrGG" /></tlLogic><tlLogic id="10647905677" type="static" programID="1" offset="0"><phase duration="20" state="GGGGGG" /><phase duration="3" state="rrrrGG" /><phase duration="20" state="rrrrGG" /></tlLogic><tlLogic id="10647905678" type="static" programID="1" offset="0"><phase duration="20" state="GGGGG" /><phase duration="3" state="rrrGG" /><phase duration="20" state="rrrGG" /></tlLogic><tlLogic id="10927932582" type="static" programID="1" offset="0"><phase duration="18" state="GGGGGGGGGGG" /><phase duration="3" state="GGGrrrrGGGG" /><phase duration="19" state="GGGrrrrGGGG" /><phase duration="3" state="GGGrrrrGGGG" /></tlLogic><tlLogic id="10981997129" type="static" programID="1" offset="0"><phase duration="20" state="GGGG" /><phase duration="3" state="rrGG" /><phase duration="20" state="rrGG" /></tlLogic><tlLogic id="10981997156" type="static" programID="1" offset="0"><phase duration="20" state="GG" /><phase duration="3" state="rG" /><phase duration="20" state="rG" /></tlLogic><tlLogic id="10981997165" type="static" programID="1" offset="0"><phase duration="20" state="GGGG" /><phase duration="3" state="rrGG" /><phase duration="20" state="rrGG" /></tlLogic><tlLogic id="10981997166" type="static" programID="1" offset="0"><phase duration="20" state="GGGGG" /><phase duration="3" state="rrrGG" /><phase duration="20" state="rrrGG" /></tlLogic><tlLogic id="10981997167" type="static" programID="1" offset="0"><phase duration="20" state="GGG" /><phase duration="3" state="rrG" /><phase duration="20" state="rrG" /></tlLogic><tlLogic id="10981997185" type="static" programID="1" offset="0"><phase duration="20" state="GGGGG" /><phase duration="3" state="rrrGG" /><phase duration="20" state="rrrGG" /></tlLogic><tlLogic id="10981997187" type="static" programID="1" offset="0"><phase duration="20" state="GGGGG" /><phase duration="3" state="rrrGG" /><phase duration="20" state="rrrGG" /></tlLogic><tlLogic id="11048229781" type="static" programID="1" offset="0"><phase duration="20" state="GG" /><phase duration="3" state="rG" /><phase duration="20" state="rG" /></tlLogic><tlLogic id="11048229782" type="static" programID="1" offset="0"><phase duration="20" state="GGGG" /><phase duration="3" state="rrGG" /><phase duration="20" state="rrGG" /></tlLogic><tlLogic id="11048229783" type="static" programID="1" offset="0"><phase duration="20" state="GGGGG" /><phase duration="3" state="rrrGG" /><phase duration="20" state="rrrGG" /></tlLogic><tlLogic id="11084341261" type="static" programID="1" offset="0"><phase duration="20" state="GGGGG" /><phase duration="3" state="rrrGG" /><phase duration="20" state="rrrGG" /></tlLogic><tlLogic id="11084341262" type="static" programID="1" offset="0"><phase duration="20" state="GGGGG" /><phase duration="3" state="rrrGG" /><phase duration="20" state="rrrGG" /></tlLogic><tlLogic id="11086015138" type="static" programID="1" offset="0"><phase duration="20" state="GGG" /><phase duration="3" state="rrG" /><phase duration="20" state="rrG" /></tlLogic><tlLogic id="11086015139" type="static" programID="1" offset="0"><phase duration="20" state="GGGG" /><phase duration="3" state="rrGG" /><phase duration="20" state="rrGG" /></tlLogic><tlLogic id="11086704625" type="static" programID="1" offset="0"><phase duration="20" state="GGGG" /><phase duration="3" state="rrGG" /><phase duration="20" state="rrGG" /></tlLogic><tlLogic id="11214928360" type="static" programID="1" offset="0"><phase duration="18" state="GGGGrrrrGGGG" /><phase duration="3" state="rrrrrrrrGGGG" /><phase duration="19" state="rrrrGGGGGGGG" /><phase duration="3" state="rrrrrrrrGGGG" /></tlLogic><tlLogic id="11224784115" type="static" programID="1" offset="0"><phase duration="20" state="GGGG" /><phase duration="3" state="rrGG" /><phase duration="20" state="rrGG" /></tlLogic><tlLogic id="11239915356" type="static" programID="1" offset="0"><phase duration="20" state="GGGGG" /><phase duration="3" state="rrrGG" /><phase duration="20" state="rrrGG" /></tlLogic><tlLogic id="11287445134" type="static" programID="1" offset="0"><phase duration="20" state="GG" /><phase duration="3" state="rG" /><phase duration="20" state="rG" /></tlLogic><tlLogic id="11287445139" type="static" programID="1" offset="0"><phase duration="20" state="GG" /><phase duration="3" state="rG" /><phase duration="20" state="rG" /></tlLogic><tlLogic id="11287445143" type="static" programID="1" offset="0"><phase duration="20" state="GG" /><phase duration="3" state="rG" /><phase duration="20" state="rG" /></tlLogic><tlLogic id="11287445146" type="static" programID="1" offset="0"><phase duration="20" state="GG" /><phase duration="3" state="rG" /><phase duration="20" state="rG" /></tlLogic><tlLogic id="11287445154" type="static" programID="1" offset="0"><phase duration="20" state="GG" /><phase duration="3" state="rG" /><phase duration="20" state="rG" /></tlLogic><tlLogic id="11289902477" type="static" programID="1" offset="0"><phase duration="20" state="GGGGG" /><phase duration="3" state="rrrGG" /><phase duration="20" state="rrrGG" /></tlLogic><tlLogic id="11289902481" type="static" programID="1" offset="0"><phase duration="20" state="GG" /><phase duration="3" state="rG" /><phase duration="20" state="rG" /></tlLogic><tlLogic id="11289902486" type="static" programID="1" offset="0"><phase duration="20" state="GGGGG" /><phase duration="3" state="rrrGG" /><phase duration="20" state="rrrGG" /></tlLogic><tlLogic id="11289902492" type="static" programID="1" offset="0"><phase duration="20" state="GGGG" /><phase duration="3" state="rrGG" /><phase duration="20" state="rrGG" /></tlLogic><tlLogic id="11289902498" type="static" programID="1" offset="0"><phase duration="20" state="GG" /><phase duration="3" state="rG" /><phase duration="20" state="rG" /></tlLogic><tlLogic id="11289902509" type="static" programID="1" offset="0"><phase duration="20" state="GG" /><phase duration="3" state="rG" /><phase duration="20" state="rG" /></tlLogic><tlLogic id="11289902513" type="static" programID="1" offset="0"><phase duration="20" state="GGGGG" /><phase duration="3" state="rrrGG" /><phase duration="20" state="rrrGG" /></tlLogic><tlLogic id="11289902516" type="static" programID="1" offset="0"><phase duration="20" state="GGGGG" /><phase duration="3" state="rrrGG" /><phase duration="20" state="rrrGG" /></tlLogic><tlLogic id="11289902523" type="static" programID="1" offset="0"><phase duration="20" state="GGGG" /><phase duration="3" state="rrGG" /><phase duration="20" state="rrGG" /></tlLogic><tlLogic id="11289902527" type="static" programID="1" offset="0"><phase duration="20" state="GGGG" /><phase duration="3" state="rrGG" /><phase duration="20" state="rrGG" /></tlLogic><tlLogic id="11289902531" type="static" programID="1" offset="0"><phase duration="20" state="GGGG" /><phase duration="3" state="rrGG" /><phase duration="20" state="rrGG" /></tlLogic><tlLogic id="11289902535" type="static" programID="1" offset="0"><phase duration="20" state="GGGGG" /><phase duration="3" state="rrrGG" /><phase duration="20" state="rrrGG" /></tlLogic><tlLogic id="11289902540" type="static" programID="1" offset="0"><phase duration="20" state="GGGGG" /><phase duration="3" state="rrrGG" /><phase duration="20" state="rrrGG" /></tlLogic><tlLogic id="11289902545" type="static" programID="1" offset="0"><phase duration="20" state="GGGG" /><phase duration="3" state="rrGG" /><phase duration="20" state="rrGG" /></tlLogic><tlLogic id="11289902550" type="static" programID="1" offset="0"><phase duration="20" state="GGGG" /><phase duration="3" state="rrGG" /><phase duration="20" state="rrGG" /></tlLogic><tlLogic id="11292204030" type="static" programID="1" offset="0"><phase duration="20" state="GG" /><phase duration="3" state="rG" /><phase duration="20" state="rG" /></tlLogic><tlLogic id="11292204036" type="static" programID="1" offset="0"><phase duration="20" state="GGGG" /><phase duration="3" state="rrGG" /><phase duration="20" state="rrGG" /></tlLogic><tlLogic id="11292204039" type="static" programID="1" offset="0"><phase duration="20" state="GG" /><phase duration="3" state="rG" /><phase duration="20" state="rG" /></tlLogic><tlLogic id="11292204041" type="static" programID="1" offset="0"><phase duration="20" state="GG" /><phase duration="3" state="rG" /><phase duration="20" state="rG" /></tlLogic><tlLogic id="11292204047" type="static" programID="1" offset="0"><phase duration="20" state="GG" /><phase duration="3" state="rG" /><phase duration="20" state="rG" /></tlLogic><tlLogic id="11292204051" type="static" programID="1" offset="0"><phase duration="20" state="GG" /><phase duration="3" state="rG" /><phase duration="20" state="rG" /></tlLogic><tlLogic id="11292204056" type="static" programID="1" offset="0"><phase duration="20" state="GGGGG" /><phase duration="3" state="rrrGG" /><phase duration="20" state="rrrGG" /></tlLogic><tlLogic id="11292204059" type="static" programID="1" offset="0"><phase duration="20" state="GG" /><phase duration="3" state="rG" /><phase duration="20" state="rG" /></tlLogic><tlLogic id="11292204061" type="static" programID="1" offset="0"><phase duration="20" state="GGGGG" /><phase duration="3" state="rrrGG" /><phase duration="20" state="rrrGG" /></tlLogic><tlLogic id="11292204063" type="static" programID="1" offset="0"><phase duration="20" state="G" /><phase duration="3" state="G" /><phase duration="20" state="G" /></tlLogic><tlLogic id="11292204066" type="static" programID="1" offset="0"><phase duration="20" state="GG" /><phase duration="3" state="rG" /><phase duration="20" state="rG" /></tlLogic><tlLogic id="11292244470" type="static" programID="1" offset="0"><phase duration="20" state="GG" /><phase duration="3" state="rG" /><phase duration="20" state="rG" /></tlLogic><tlLogic id="11292244473" type="static" programID="1" offset="0"><phase duration="20" state="GG" /><phase duration="3" state="rG" /><phase duration="20" state="rG" /></tlLogic><tlLogic id="11292244478" type="static" programID="1" offset="0"><phase duration="20" state="GGGGG" /><phase duration="3" state="rrrGG" /><phase duration="20" state="rrrGG" /></tlLogic><tlLogic id="11292244480" type="static" programID="1" offset="0"><phase duration="20" state="GGGGG" /><phase duration="3" state="rrrGG" /><phase duration="20" state="rrrGG" /></tlLogic><tlLogic id="11292244482" type="static" programID="1" offset="0"><phase duration="20" state="GGGG" /><phase duration="3" state="rrGG" /><phase duration="20" state="rrGG" /></tlLogic><tlLogic id="11292244485" type="static" programID="1" offset="0"><phase duration="20" state="GGGGG" /><phase duration="3" state="rrrGG" /><phase duration="20" state="rrrGG" /></tlLogic><tlLogic id="11292244486" type="static" programID="1" offset="0"><phase duration="20" state="GGGGG" /><phase duration="3" state="rrrGG" /><phase duration="20" state="rrrGG" /></tlLogic><tlLogic id="11292244487" type="static" programID="1" offset="0"><phase duration="20" state="GGGG" /><phase duration="3" state="rrGG" /><phase duration="20" state="rrGG" /></tlLogic><tlLogic id="11292244488" type="static" programID="1" offset="0"><phase duration="20" state="GGGG" /><phase duration="3" state="rrGG" /><phase duration="20" state="rrGG" /></tlLogic><tlLogic id="11292244490" type="static" programID="1" offset="0"><phase duration="20" state="GGGG" /><phase duration="3" state="rrGG" /><phase duration="20" state="rrGG" /></tlLogic><tlLogic id="11292244491" type="static" programID="1" offset="0"><phase duration="20" state="GGGG" /><phase duration="3" state="rrGG" /><phase duration="20" state="rrGG" /></tlLogic><tlLogic id="11294504573" type="static" programID="1" offset="0"><phase duration="20" state="GG" /><phase duration="3" state="rG" /><phase duration="20" state="rG" /></tlLogic><tlLogic id="11294504575" type="static" programID="1" offset="0"><phase duration="20" state="GGGGG" /><phase duration="3" state="rrrGG" /><phase duration="20" state="rrrGG" /></tlLogic><tlLogic id="11294504577" type="static" programID="1" offset="0"><phase duration="20" state="GG" /><phase duration="3" state="rG" /><phase duration="20" state="rG" /></tlLogic><tlLogic id="11294504579" type="static" programID="1" offset="0"><phase duration="20" state="GGGG" /><phase duration="3" state="rrGG" /><phase duration="20" state="rrGG" /></tlLogic><tlLogic id="11294504583" type="static" programID="1" offset="0"><phase duration="20" state="GG" /><phase duration="3" state="rG" /><phase duration="20" state="rG" /></tlLogic><tlLogic id="11294504586" type="static" programID="1" offset="0"><phase duration="20" state="GG" /><phase duration="3" state="rG" /><phase duration="20" state="rG" /></tlLogic><tlLogic id="11294504594" type="static" programID="1" offset="0"><phase duration="20" state="GG" /><phase duration="3" state="rG" /><phase duration="20" state="rG" /></tlLogic><tlLogic id="11294504598" type="static" programID="1" offset="0"><phase duration="20" state="GG" /><phase duration="3" state="rG" /><phase duration="20" state="rG" /></tlLogic><tlLogic id="11294504602" type="static" programID="1" offset="0"><phase duration="20" state="GG" /><phase duration="3" state="rG" /><phase duration="20" state="rG" /></tlLogic><tlLogic id="11294504605" type="static" programID="1" offset="0"><phase duration="20" state="GG" /><phase duration="3" state="rG" /><phase duration="20" state="rG" /></tlLogic><tlLogic id="11294504620" type="static" programID="1" offset="0"><phase duration="20" state="GG" /><phase duration="3" state="rG" /><phase duration="20" state="rG" /></tlLogic><tlLogic id="11294504624" type="static" programID="1" offset="0"><phase duration="20" state="GG" /><phase duration="3" state="rG" /><phase duration="20" state="rG" /></tlLogic><tlLogic id="11294504633" type="static" programID="1" offset="0"><phase duration="20" state="GG" /><phase duration="3" state="rG" /><phase duration="20" state="rG" /></tlLogic><tlLogic id="11294504638" type="static" programID="1" offset="0"><phase duration="20" state="GG" /><phase duration="3" state="rG" /><phase duration="20" state="rG" /></tlLogic><tlLogic id="11294504642" type="static" programID="1" offset="0"><phase duration="20" state="G" /><phase duration="3" state="G" /><phase duration="20" state="G" /></tlLogic><tlLogic id="11294504647" type="static" programID="1" offset="0"><phase duration="20" state="GGG" /><phase duration="3" state="rrG" /><phase duration="20" state="rrG" /></tlLogic><tlLogic id="11294504648" type="static" programID="1" offset="0"><phase duration="20" state="GGG" /><phase duration="3" state="rrG" /><phase duration="20" state="rrG" /></tlLogic><tlLogic id="11294504649" type="static" programID="1" offset="0"><phase duration="20" state="GGG" /><phase duration="3" state="rrG" /><phase duration="20" state="rrG" /></tlLogic><tlLogic id="11294504650" type="static" programID="1" offset="0"><phase duration="20" state="GGG" /><phase duration="3" state="rrG" /><phase duration="20" state="rrG" /></tlLogic><tlLogic id="11294504652" type="static" programID="1" offset="0"><phase duration="20" state="GGG" /><phase duration="3" state="rrG" /><phase duration="20" state="rrG" /></tlLogic><tlLogic id="11294504653" type="static" programID="1" offset="0"><phase duration="20" state="GGG" /><phase duration="3" state="rrG" /><phase duration="20" state="rrG" /></tlLogic><tlLogic id="11294504655" type="static" programID="1" offset="0"><phase duration="20" state="GGG" /><phase duration="3" state="rrG" /><phase duration="20" state="rrG" /></tlLogic><tlLogic id="11294504656" type="static" programID="1" offset="0"><phase duration="20" state="GGG" /><phase duration="3" state="rrG" /><phase duration="20" state="rrG" /></tlLogic><tlLogic id="11294504659" type="static" programID="1" offset="0"><phase duration="20" state="GGG" /><phase duration="3" state="rrG" /><phase duration="20" state="rrG" /></tlLogic><tlLogic id="11294504660" type="static" programID="1" offset="0"><phase duration="20" state="GGG" /><phase duration="3" state="rrG" /><phase duration="20" state="rrG" /></tlLogic><tlLogic id="11301256000" type="static" programID="1" offset="0"><phase duration="20" state="GG" /><phase duration="3" state="rG" /><phase duration="20" state="rG" /></tlLogic><tlLogic id="11301256004" type="static" programID="1" offset="0"><phase duration="20" state="GG" /><phase duration="3" state="rG" /><phase duration="20" state="rG" /></tlLogic><tlLogic id="11301256013" type="static" programID="1" offset="0"><phase duration="20" state="GG" /><phase duration="3" state="rG" /><phase duration="20" state="rG" /></tlLogic><tlLogic id="11301256021" type="static" programID="1" offset="0"><phase duration="20" state="GGGGG" /><phase duration="3" state="rrrGG" /><phase duration="20" state="rrrGG" /></tlLogic><tlLogic id="11301256029" type="static" programID="1" offset="0"><phase duration="20" state="GG" /><phase duration="3" state="rG" /><phase duration="20" state="rG" /></tlLogic><tlLogic id="11301256033" type="static" programID="1" offset="0"><phase duration="20" state="GG" /><phase duration="3" state="rG" /><phase duration="20" state="rG" /></tlLogic><tlLogic id="11301256049" type="static" programID="1" offset="0"><phase duration="20" state="GGGG" /><phase duration="3" state="rrGG" /><phase duration="20" state="rrGG" /></tlLogic><tlLogic id="11301256051" type="static" programID="1" offset="0"><phase duration="20" state="GGGG" /><phase duration="3" state="rrGG" /><phase duration="20" state="rrGG" /></tlLogic><tlLogic id="11301256052" type="static" programID="1" offset="0"><phase duration="20" state="GGGG" /><phase duration="3" state="rrGG" /><phase duration="20" state="rrGG" /></tlLogic><tlLogic id="11301256053" type="static" programID="1" offset="0"><phase duration="20" state="GGGG" /><phase duration="3" state="rrGG" /><phase duration="20" state="rrGG" /></tlLogic><tlLogic id="11301256054" type="static" programID="1" offset="0"><phase duration="20" state="GGGG" /><phase duration="3" state="rrGG" /><phase duration="20" state="rrGG" /></tlLogic><tlLogic id="11301256055" type="static" programID="1" offset="0"><phase duration="20" state="GGGG" /><phase duration="3" state="rrGG" /><phase duration="20" state="rrGG" /></tlLogic><tlLogic id="11308686757" type="static" programID="1" offset="0"><phase duration="20" state="GG" /><phase duration="3" state="rG" /><phase duration="20" state="rG" /></tlLogic><tlLogic id="11308686763" type="static" programID="1" offset="0"><phase duration="20" state="GGGGGG" /><phase duration="3" state="rrrrGG" /><phase duration="20" state="rrrrGG" /></tlLogic><tlLogic id="11308686765" type="static" programID="1" offset="0"><phase duration="20" state="GGGGGG" /><phase duration="3" state="rrrrGG" /><phase duration="20" state="rrrrGG" /></tlLogic><tlLogic id="11308721688" type="static" programID="1" offset="0"><phase duration="20" state="GGGGG" /><phase duration="3" state="rrrGG" /><phase duration="20" state="rrrGG" /></tlLogic><tlLogic id="11308721690" type="static" programID="1" offset="0"><phase duration="20" state="GGGGGGG" /><phase duration="3" state="rrrrGGG" /><phase duration="20" state="rrrrGGG" /></tlLogic><tlLogic id="11308721692" type="static" programID="1" offset="0"><phase duration="20" state="GGGGGG" /><phase duration="3" state="rrrrGG" /><phase duration="20" state="rrrrGG" /></tlLogic><tlLogic id="1130872