<?xml version="1.0" encoding="UTF-8"?>
<additional><tlLogic id="10224707603" type="static" programID="1" offset="36"><phase duration="19" state="rrrr" /><phase duration="18" state="GGGG" /><phase duration="2" state="yyyy" /></tlLogic><tlLogic id="10224707605" type="static" programID="1" offset="37"><phase duration="1" state="yyyyyyy" /><phase duration="19" state="rrrrrrr" /><phase duration="21" state="GGGGGGG" /></tlLogic><tlLogic id="10224707606" type="static" programID="1" offset="44"><phase duration="18" state="GGGGGGG" /><phase duration="1" state="yyyyyyy" /><phase duration="22" state="rrrrrrr" /></tlLogic><tlLogic id="10224707607" type="static" programID="1" offset="16"><phase duration="20" state="rrr" /><phase duration="18" state="GGG" /><phase duration="2" state="yyy" /></tlLogic><tlLogic id="10224707611" type="static" programID="1" offset="20"><phase duration="3" state="yy" /><phase duration="19" state="rr" /><phase duration="19" state="GG" /></tlLogic><tlLogic id="10224707612" type="static" programID="1" offset="53"><phase duration="4" state="yyyyyy" /><phase duration="21" state="rrrrrr" /><phase duration="19" state="GGGGGG" /></tlLogic><tlLogic id="10224707613" type="static" programID="1" offset="34"><phase duration="21" state="rrrrrrr" /><phase duration="22" state="GGGGGGG" /><phase duration="4" state="yyyyyyy" /></tlLogic><tlLogic id="10224707614" type="static" programID="1" offset="31"><phase duration="19" state="rr" /><phase duration="22" state="GG" /><phase duration="3" state="yy" /></tlLogic><tlLogic id="10224707615" type="static" programID="1" offset="19"><phase duration="18" state="GG" /><phase duration="5" state="yy" /><phase duration="19" state="rr" /></tlLogic><tlLogic id="10224707616" type="static" programID="1" offset="30"><phase duration="22" state="GGGGGGG" /><phase duration="4" state="yyyyyyy" /><phase duration="19" state="rrrrrrr" /></tlLogic><tlLogic id="10224712617" type="static" programID="1" offset="12"><phase duration="18" state="GGGGGGG" /><phase duration="5" state="yyyyyyy" /><phase duration="18" state="rrrrrrr" /></tlLogic><tlLogic id="10224712618" type="static" programID="1" offset="52"><phase duration="18" state="GG" /><phase duration="4" state="yy" /><phase duration="21" state="rr" /></tlLogic><tlLogic id="10224712619" type="static" programID="1" offset="3"><phase duration="21" state="GG" /><phase duration="1" state="yy" /><phase duration="22" state="rr" /></tlLogic><tlLogic id="10224712620" type="static" programID="1" offset="47"><phase duration="22" state="rrrrrrr" /><phase duration="20" state="GGGGGGG" /><phase duration="2" state="yyyyyyy" /></tlLogic><tlLogic id="10224712621" type="static" programID="1" offset="52"><phase duration="1" state="yyyyyyyy" /><phase duration="18" state="rrrrrrrr" /><phase duration="21" state="GGGGGGGG" /></tlLogic><tlLogic id="10224712622" type="static" programID="1" offset="42"><phase duration="1" state="yyy" /><phase duration="21" state="rrr" /><phase duration="21" state="GGG" /></tlLogic><tlLogic id="10224712623" type="static" programID="1" offset="46"><phase duration="20" state="rrr" /><phase duration="18" state="GGG" /><phase duration="5" state="yyy" /></tlLogic><tlLogic id="10224712624" type="static" programID="1" offset="60"><phase duration="22" state="rrr" /><phase duration="20" state="GGG" /><phase duration="2" state="yyy" /></tlLogic><tlLogic id="10224712627" type="static" programID="1" offset="57"><phase duration="21" state="rr" /><phase duration="19" state="GG" /><phase duration="1" state="yy" /></tlLogic><tlLogic id="10224712628" type="static" programID="1" offset="5"><phase duration="2" state="yyyy" /><phase duration="18" state="rrrr" /><phase duration="20" state="GGGG" /></tlLogic><tlLogic id="10224712629" type="static" programID="1" offset="1"><phase duration="18" state="G" /><phase duration="1" state="y" /><phase duration="21" state="r" /></tlLogic><tlLogic id="10229646455" type="static" programID="1" offset="56"><phase duration="5" state="yyyyyy" /><phase duration="19" state="rrrrrr" /><phase duration="19" state="GGGGGG" /></tlLogic><tlLogic id="10229646456" type="static" programID="1" offset="33"><phase duration="21" state="rrrrrr" /><phase duration="21" state="GGGGGG" /><phase duration="3" state="yyyyyy" /></tlLogic><tlLogic id="10229646457" type="static" programID="1" offset="59"><phase duration="22" state="rrrrrrr" /><phase duration="18" state="GGGGGGG" /><phase duration="3" state="yyyyyyy" /></tlLogic><tlLogic id="10229646458" type="static" programID="1" offset="21"><phase duration="4" state="yyyy" /><phase duration="20" state="rrrr" /><phase duration="19" state="GGGG" /></tlLogic><tlLogic id="10229646460" type="static" programID="1" offset="13"><phase duration="4" state="yyyy" /><phase duration="19" state="rrrr" /><phase duration="21" state="GGGG" /></tlLogic><tlLogic id="10229646461" type="static" programID="1" offset="37"><phase duration="21" state="GG" /><phase duration="5" state="yy" /><phase duration="21" state="rr" /></tlLogic><tlLogic id="10229646462" type="static" programID="1" offset="28"><phase duration="22" state="rrr" /><phase duration="22" state="GGG" /><phase duration="5" state="yyy" /></tlLogic><tlLogic id="10229646463" type="static" programID="1" offset="33"><phase duration="5" state="yyyyy" /><phase duration="18" state="rrrrr" /><phase duration="18" state="GGGGG" /></tlLogic><tlLogic id="10229646464" type="static" programID="1" offset="19"><phase duration="20" state="rrrrr" /><phase duration="19" state="GGGGG" /><phase duration="5" state="yyyyy" /></tlLogic><tlLogic id="10229646465" type="static" programID="1" offset="1"><phase duration="3" state="yy" /><phase duration="21" state="rr" /><phase duration="20" state="GG" /></tlLogic><tlLogic id="10229646466" type="static" programID="1" offset="21"><phase duration="3" state="yyy" /><phase duration="20" state="rrr" /><phase duration="20" state="GGG" /></tlLogic><tlLogic id="10229646467" type="static" programID="1" offset="42"><phase duration="21" state="GGG" /><phase duration="4" state="yyy" /><phase duration="21" state="rrr" /></tlLogic><tlLogic id="10229646468" type="static" programID="1" offset="13"><phase duration="20" state="GG" /><phase duration="5" state="yy" /><phase duration="22" state="rr" /></tlLogic><tlLogic id="10229646469" type="static" programID="1" offset="23"><phase duration="20" state="GGGGG" /><phase duration="1" state="yyyyy" /><phase duration="19" state="rrrrr" /></tlLogic><tlLogic id="10229646470" type="static" programID="1" offset="14"><phase duration="19" state="GG" /><phase duration="4" state="yy" /><phase duration="21" state="rr" /></tlLogic><tlLogic id="10229646471" type="static" programID="1" offset="39"><phase duration="1" state="yyy" /><phase duration="21" state="rrr" /><phase duration="19" state="GGG" /></tlLogic><tlLogic id="10229646472" type="static" programID="1" offset="28"><phase duration="18" state="rrrrr" /><phase duration="19" state="GGGGG" /><phase duration="5" state="yyyyy" /></tlLogic><tlLogic id="10229646473" type="static" programID="1" offset="29"><phase duration="5" state="yy" /><phase duration="19" state="rr" /><phase duration="19" state="GG" /></tlLogic><tlLogic id="10229646474" type="static" programID="1" offset="24"><phase duration="4" state="yyy" /><phase duration="18" state="rrr" /><phase duration="20" state="GGG" /></tlLogic><tlLogic id="10229646476" type="static" programID="1" offset="60"><phase duration="21" state="rr" /><phase duration="20" state="GG" /><phase duration="1" state="yy" /></tlLogic><tlLogic id="10229646477" type="static" programID="1" offset="51"><phase duration="22" state="rrr" /><phase duration="21" state="GGG" /><phase duration="1" state="yyy" /></tlLogic><tlLogic id="10229646478" type="static" programID="1" offset="18"><phase duration="2" state="yy" /><phase duration="18" state="rr" /><phase duration="21" state="GG" /></tlLogic><tlLogic id="10229646479" type="static" programID="1" offset="32"><phase duration="4" state="yyy" /><phase duration="21" state="rrr" /><phase duration="20" state="GGG" /></tlLogic><tlLogic id="10229646480" type="static" programID="1" offset="17"><phase duration="4" state="yy" /><phase duration="19" state="rr" /><phase duration="22" state="GG" /></tlLogic><tlLogic id="10229646481" type="static" programID="1" offset="8"><phase duration="19" state="rr" /><phase duration="22" state="GG" /><phase duration="1" state="yy" /></tlLogic><tlLogic id="10229646482" type="static" programID="1" offset="5"><phase duration="22" state="GGGGG" /><phase duration="4" state="yyyyy" /><phase duration="22" state="rrrrr" /></tlLogic><tlLogic id="10229646483" type="static" programID="1" offset="0"><phase duration="21" state="GGGGG" /><phase duration="3" state="yyyyy" /><phase duration="20" state="rrrrr" /></tlLogic><tlLogic id="10229646484" type="static" programID="1" offset="2"><phase duration="19" state="rrr" /><phase duration="20" state="GGG" /><phase duration="4" state="yyy" /></tlLogic><tlLogic id="10229646485" type="static" programID="1" offset="20"><phase duration="18" state="rr" /><phase duration="20" state="GG" /><phase duration="4" state="yy" /></tlLogic><tlLogic id="10229646486" type="static" programID="1" offset="57"><phase duration="2" state="yyy" /><phase duration="21" state="rrr" /><phase duration="21" state="GGG" /></tlLogic><tlLogic id="10229646487" type="static" programID="1" offset="32"><phase duration="18" state="rr" /><phase duration="21" state="GG" /><phase duration="2" state="yy" /></tlLogic><tlLogic id="10229646488" type="static" programID="1" offset="19"><phase duration="21" state="GG" /><phase duration="1" state="yy" /><phase duration="20" state="rr" /></tlLogic><tlLogic id="10229646489" type="static" programID="1" offset="25"><phase duration="19" state="GG" /><phase duration="4" state="yy" /><phase duration="22" state="rr" /></tlLogic><tlLogic id="10229646490" type="static" programID="1" offset="24"><phase duration="20" state="rr" /><phase duration="21" state="GG" /><phase duration="4" state="yy" /></tlLogic><tlLogic id="10229646491" type="static" programID="1" offset="25"><phase duration="21" state="rrr" /><phase duration="21" state="GGG" /><phase duration="2" state="yyy" /></tlLogic><tlLogic id="10229646492" type="static" programID="1" offset="31"><phase duration="1" state="yy" /><phase duration="22" state="rr" /><phase duration="19" state="GG" /></tlLogic><tlLogic id="10647905672" type="static" programID="1" offset="25"><phase duration="18" state="rrrrrrr" /><phase duration="22" state="GGGGGGG" /><phase duration="5" state="yyyyyyy" /></tlLogic><tlLogic id="10647905676" type="static" programID="1" offset="38"><phase duration="2" state="yyyy" /><phase duration="20" state="rrrr" /><phase duration="19" state="GGGG" /></tlLogic><tlLogic id="10647905677" type="static" programID="1" offset="37"><phase duration="18" state="rrrrrr" /><phase duration="21" state="GGGGGG" /><phase duration="3" state="yyyyyy" /></tlLogic><tlLogic id="10647905678" type="static" programID="1" offset="8"><phase duration="18" state="rrrrr" /><phase duration="22" state="GGGGG" /><phase duration="5" state="yyyyy" /></tlLogic><tlLogic id="10927932582" type="static" programID="1" offset="16"><phase duration="2" state="Grrrrrryyyy" /><phase duration="2" state="rrrrrrrrrrr" /><phase duration="19" state="GGGGGGgrrrr" /><phase duration="3" state="Gyyyyyyrrrr" /><phase duration="2" state="rrrrrrrrrrr" /><phase duration="21" state="GrrrrrrGGGg" /></tlLogic><tlLogic id="10981997129" type="static" programID="1" offset="60"><phase duration="22" state="rrrr" /><phase duration="22" state="GGGG" /><phase duration="2" state="yyyy" /></tlLogic><tlLogic id="10981997156" type="static" programID="1" offset="0"><phase duration="19" state="rr" /><phase duration="22" state="GG" /><phase duration="1" state="yy" /></tlLogic><tlLogic id="10981997165" type="static" programID="1" offset="37"><phase duration="21" state="rrrr" /><phase duration="20" state="GGGG" /><phase duration="1" state="yyyy" /></tlLogic><tlLogic id="10981997166" type="static" programID="1" offset="46"><phase duration="2" state="yyyyy" /><phase duration="20" state="rrrrr" /><phase duration="21" state="GGGGG" /></tlLogic><tlLogic id="10981997167" type="static" programID="1" offset="51"><phase duration="18" state="GGG" /><phase duration="5" state="yyy" /><phase duration="20" state="rrr" /></tlLogic><tlLogic id="10981997185" type="static" programID="1" offset="11"><phase duration="3" state="yyyyy" /><phase duration="18" state="rrrrr" /><phase duration="20" state="GGGGG" /></tlLogic><tlLogic id="10981997187" type="static" programID="1" offset="19"><phase duration="5" state="yyyyy" /><phase duration="22" state="rrrrr" /><phase duration="20" state="GGGGG" /></tlLogic><tlLogic id="11048229781" type="static" programID="1" offset="37"><phase duration="20" state="GG" /><phase duration="3" state="yy" /><phase duration="20" state="rr" /></tlLogic><tlLogic id="11048229782" type="static" programID="1" offset="11"><phase duration="21" state="rrrr" /><phase duration="20" state="GGGG" /><phase duration="3" state="yyyy" /></tlLogic><tlLogic id="11048229783" type="static" programID="1" offset="42"><phase duration="2" state="yyyyy" /><phase duration="19" state="rrrrr" /><phase duration="19" state="GGGGG" /></tlLogic><tlLogic id="11084341261" type="static" programID="1" offset="2"><phase duration="21" state="rrrrr" /><phase duration="20" state="GGGGG" /><phase duration="2" state="yyyyy" /></tlLogic><tlLogic id="11084341262" type="static" programID="1" offset="38"><phase duration="19" state="rrrrr" /><phase duration="21" state="GGGGG" /><phase duration="4" state="yyyyy" /></tlLogic><tlLogic id="11086015138" type="static" programID="1" offset="25"><phase duration="20" state="GGG" /><phase duration="2" state="yyy" /><phase duration="20" state="rrr" /></tlLogic><tlLogic id="11086015139" type="static" programID="1" offset="55"><phase duration="22" state="rrrr" /><phase duration="19" state="GGGG" /><phase duration="5" state="yyyy" /></tlLogic><tlLogic id="11086704625" type="static" programID="1" offset="1"><phase duration="22" state="rrrr" /><phase duration="19" state="GGGG" /><phase duration="1" state="yyyy" /></tlLogic><tlLogic id="11214928360" type="static" programID="1" offset="35"><phase duration="5" state="yyyyyrrrrGyy" /><phase duration="2" state="rrrrrrrrrrrr" /><phase duration="18" state="rrrrrGGGgGrr" /><phase duration="3" state="rrrrryyyyGrr" /><phase duration="2" state="rrrrrrrrrrrr" /><phase duration="20" state="GGGGgrrrrGGG" /></tlLogic><tlLogic id="11224784115" type="static" programID="1" offset="37"><phase duration="22" state="rrrr" /><phase duration="19" state="GGGG" /><phase duration="1" state="yyyy" /></tlLogic><tlLogic id="11239915356" type="static" programID="1" offset="41"><phase duration="19" state="GGGGG" /><phase duration="3" state="yyyyy" /><phase duration="19" state="rrrrr" /></tlLogic><tlLogic id="11287445134" type="static" programID="1" offset="46"><phase duration="2" state="yy" /><phase duration="20" state="rr" /><phase duration="18" state="GG" /></tlLogic><tlLogic id="11287445139" type="static" programID="1" offset="21"><phase duration="18" state="rr" /><phase duration="18" state="GG" /><phase duration="1" state="yy" /></tlLogic><tlLogic id="11287445143" type="static" programID="1" offset="0"><phase duration="2" state="yy" /><phase duration="22" state="rr" /><phase duration="18" state="GG" /></tlLogic><tlLogic id="11287445146" type="static" programID="1" offset="8"><phase duration="22" state="rr" /><phase duration="18" state="GG" /><phase duration="1" state="yy" /></tlLogic><tlLogic id="11287445154" type="static" programID="1" offset="57"><phase duration="20" state="rr" /><phase duration="20" state="GG" /><phase duration="1" state="yy" /></tlLogic><tlLogic id="11289902477" type="static" programID="1" offset="57"><phase duration="21" state="GGGGG" /><phase duration="5" state="yyyyy" /><phase duration="18" state="rrrrr" /></tlLogic><tlLogic id="11289902481" type="static" programID="1" offset="25"><phase duration="21" state="GG" /><phase duration="5" state="yy" /><phase duration="18" state="rr" /></tlLogic><tlLogic id="11289902486" type="static" programID="1" offset="36"><phase duration="20" state="rrrrr" /><phase duration="22" state="GGGGG" /><phase duration="1" state="yyyyy" /></tlLogic><tlLogic id="11289902492" type="static" programID="1" offset="7"><phase duration="22" state="GGGG" /><phase duration="4" state="yyyy" /><phase duration="18" state="rrrr" /></tlLogic><tlLogic id="11289902498" type="static" programID="1" offset="28"><phase duration="21" state="GG" /><phase duration="5" state="yy" /><phase duration="20" state="rr" /></tlLogic><tlLogic id="11289902509" type="static" programID="1" offset="55"><phase duration="22" state="rr" /><phase duration="20" state="GG" /><phase duration="2" state="yy" /></tlLogic><tlLogic id="11289902513" type="static" programID="1" offset="6"><phase duration="20" state="rrrrr" /><phase duration="19" state="GGGGG" /><phase duration="1" state="yyyyy" /></tlLogic><tlLogic id="11289902516" type="static" programID="1" offset="5"><phase duration="5" state="yyyyy" /><phase duration="18" state="rrrrr" /><phase duration="18" state="GGGGG" /></tlLogic><tlLogic id="11289902523" type="static" programID="1" offset="19"><phase duration="3" state="yyyy" /><phase duration="21" state="rrrr" /><phase duration="19" state="GGGG" /></tlLogic><tlLogic id="11289902527" type="static" programID="1" offset="26"><phase duration="18" state="GGGG" /><phase duration="2" state="yyyy" /><phase duration="20" state="rrrr" /></tlLogic><tlLogic id="11289902531" type="static" programID="1" offset="0"><phase duration="18" state="GGGG" /><phase duration="3" state="yyyy" /><phase duration="22" state="rrrr" /></tlLogic><tlLogic id="11289902535" type="static" programID="1" offset="54"><phase duration="22" state="GGGGG" /><phase duration="2" state="yyyyy" /><phase duration="20" state="rrrrr" /></tlLogic><tlLogic id="11289902540" type="static" programID="1" offset="30"><phase duration="2" state="yyyyy" /><phase duration="19" state="rrrrr" /><phase duration="20" state="GGGGG" /></tlLogic><tlLogic id="11289902545" type="static" programID="1" offset="50"><phase duration="2" state="yyyy" /><phase duration="19" state="rrrr" /><phase duration="18" state="GGGG" /></tlLogic><tlLogic id="11289902550" type="static" programID="1" offset="51"><phase duration="20" state="rrrr" /><phase duration="22" state="GGGG" /><phase duration="5" state="yyyy" /></tlLogic><tlLogic id="11292204030" type="static" programID="1" offset="47"><phase duration="20" state="GG" /><phase duration="4" state="yy" /><phase duration="22" state="rr" /></tlLogic><tlLogic id="11292204036" type="static" programID="1" offset="27"><phase duration="22" state="rrrr" /><phase duration="21" state="GGGG" /><phase duration="5" state="yyyy" /></tlLogic><tlLogic id="11292204039" type="static" programID="1" offset="37"><phase duration="22" state="rr" /><phase duration="22" state="GG" /><phase duration="4" state="yy" /></tlLogic><tlLogic id="11292204041" type="static" programID="1" offset="7"><phase duration="20" state="rr" /><phase duration="19" state="GG" /><phase duration="3" state="yy" /></tlLogic><tlLogic id="11292204047" type="static" programID="1" offset="47"><phase duration="19" state="rr" /><phase duration="19" state="GG" /><phase duration="5" state="yy" /></tlLogic><tlLogic id="11292204051" type="static" programID="1" offset="38"><phase duration="19" state="rr" /><phase duration="19" state="GG" /><phase duration="3" state="yy" /></tlLogic><tlLogic id="11292204056" type="static" programID="1" offset="58"><phase duration="21" state="rrrrr" /><phase duration="19" state="GGGGG" /><phase duration="4" state="yyyyy" /></tlLogic><tlLogic id="11292204059" type="static" programID="1" offset="39"><phase duration="1" state="yy" /><phase duration="22" state="rr" /><phase duration="21" state="GG" /></tlLogic><tlLogic id="11292204061" type="static" programID="1" offset="23"><phase duration="18" state="rrrrr" /><phase duration="20" state="GGGGG" /><phase duration="1" state="yyyyy" /></tlLogic><tlLogic id="11292204063" type="static" programID="1" offset="7"><phase duration="19" state="G" /><phase duration="2" state="y" /><phase duration="18" state="r" /></tlLogic><tlLogic id="11292204066" type="static" programID="1" offset="30"><phase duration="20" state="rr" /><phase duration="19" state="GG" /><phase duration="1" state="yy" /></tlLogic><tlLogic id="11292244470" type="static" programID="1" offset="26"><phase duration="22" state="GG" /><phase duration="5" state="yy" /><phase duration="19" state="rr" /></tlLogic><tlLogic id="11292244473" type="static" programID="1" offset="2"><phase duration="21" state="GG" /><phase duration="2" state="yy" /><phase duration="21" state="rr" /></tlLogic><tlLogic id="11292244478" type="static" programID="1" offset="46"><phase duration="21" state="rrrrr" /><phase duration="19" state="GGGGG" /><phase duration="4" state="yyyyy" /></tlLogic><tlLogic id="11292244480" type="static" programID="1" offset="6"><phase duration="21" state="rrrrr" /><phase duration="19" state="GGGGG" /><phase duration="5" state="yyyyy" /></tlLogic><tlLogic id="11292244482" type="static" programID="1" offset="24"><phase duration="21" state="rrrr" /><phase duration="18" state="GGGG" /><phase duration="1" state="yyyy" /></tlLogic><tlLogic id="11292244485" type="static" programID="1" offset="17"><phase duration="18" state="rrrrr" /><phase duration="18" state="GGGGG" /><phase duration="2" state="yyyyy" /></tlLogic><tlLogic id="11292244486" type="static" programID="1" offset="39"><phase duration="22" state="GGGGG" /><phase duration="1" state="yyyyy" /><phase duration="22" state="rrrrr" /></tlLogic><tlLogic id="11292244487" type="static" programID="1" offset="54"><phase duration="3" state="yyyy" /><phase duration="20" state="rrrr" /><phase duration="22" state="GGGG" /></tlLogic><tlLogic id="11292244488" type="static" programID="1" offset="37"><phase duration="22" state="GGGG" /><phase duration="2" state="yyyy" /><phase duration="19" state="rrrr" /></tlLogic><tlLogic id="11292244490" type="static" programID="1" offset="17"><phase duration="22" state="GGGG" /><phase duration="2" state="yyyy" /><phase duration="19" state="rrrr" /></tlLogic><tlLogic id="11292244491" type="static" programID="1" offset="11"><phase duration="19" state="rrrr" /><phase duration="18" state="GGGG" /><phase duration="3" state="yyyy" /></tlLogic><tlLogic id="11294504573" type="static" programID="1" offset="45"><phase duration="18" state="rr" /><phase duration="22" state="GG" /><phase duration="5" state="yy" /></tlLogic><tlLogic id="11294504575" type="static" programID="1" offset="34"><phase duration="20" state="rrrrr" /><phase duration="19" state="GGGGG" /><phase duration="3" state="yyyyy" /></tlLogic><tlLogic id="11294504577" type="static" programID="1" offset="43"><phase duration="21" state="rr" /><phase duration="20" state="GG" /><phase duration="3" state="yy" /></tlLogic><tlLogic id="11294504579" type="static" programID="1" offset="41"><phase duration="4" state="yyyy" /><phase duration="21" state="rrrr" /><phase duration="22" state="GGGG" /></tlLogic><tlLogic id="11294504583" type="static" programID="1" offset="29"><phase duration="20" state="rr" /><phase duration="19" state="GG" /><phase duration="3" state="yy" /></tlLogic><tlLogic id="11294504586" type="static" programID="1" offset="43"><phase duration="19" state="GG" /><phase duration="5" state="yy" /><phase duration="19" state="rr" /></tlLogic><tlLogic id="11294504594" type="static" programID="1" offset="36"><phase duration="20" state="rr" /><phase duration="21" state="GG" /><phase duration="5" state="yy" /></tlLogic><tlLogic id="11294504598" type="static" programID="1" offset="21"><phase duration="20" state="rr" /><phase duration="20" state="GG" /><phase duration="2" state="yy" /></tlLogic><tlLogic id="11294504602" type="static" programID="1" offset="36"><phase duration="18" state="rr" /><phase duration="18" state="GG" /><phase duration="4" state="yy" /></tlLogic><tlLogic id="11294504605" type="static" programID="1" offset="57"><phase duration="21" state="rr" /><phase duration="20" state="GG" /><phase duration="5" state="yy" /></tlLogic><tlLogic id="11294504620" type="static" programID="1" offset="45"><phase duration="22" state="GG" /><phase duration="2" state="yy" /><phase duration="19" state="rr" /></tlLogic><tlLogic id="11294504624" type="static" programID="1" offset="56"><phase duration="21" state="rr" /><phase duration="22" state="GG" /><phase duration="4" state="yy" /></tlLogic><tlLogic id="11294504633" type="static" programID="1" offset="5"><phase duration="20" state="rr" /><phase duration="22" state="GG" /><phase duration="5" state="yy" /></tlLogic><tlLogic id="11294504638" type="static" programID="1" offset="30"><phase duration="5" state="yy" /><phase duration="19" state="rr" /><phase duration="21" state="GG" /></tlLogic><tlLogic id="11294504642" type="static" programID="1" offset="47"><phase duration="3" state="y" /><phase duration="20" state="r" /><phase duration="18" state="G" /></tlLogic><tlLogic id="11294504647" type="static" programID="1" offset="48"><phase duration="22" state="rrr" /><phase duration="20" state="GGG" /><phase duration="2" state="yyy" /></tlLogic><tlLogic id="11294504648" type="static" programID="1" offset="37"><phase duration="1" state="yyy" /><phase duration="21" state="rrr" /><phase duration="21" state="GGG" /></tlLogic><tlLogic id="11294504649" type="static" programID="1" offset="25"><phase duration="22" state="rrr" /><phase duration="18" state="GGG" /><phase duration="1" state="yyy" /></tlLogic><tlLogic id="11294504650" type="static" programID="1" offset="41"><phase duration="5" state="yyy" /><phase duration="21" state="rrr" /><phase duration="20" state="GGG" /></tlLogic><tlLogic id="11294504652" type="static" programID="1" offset="19"><phase duration="20" state="rrr" /><phase duration="18" state="GGG" /><phase duration="1" state="yyy" /></tlLogic><tlLogic id="11294504653" type="static" programID="1" offset="18"><phase duration="22" state="GGG" /><phase duration="1" state="yyy" /><phase duration="22" state="rrr" /></tlLogic><tlLogic id="11294504655" type="static" programID="1" offset="27"><phase duration="2" state="yyy" /><phase duration="19" state="rrr" /><phase duration="20" state="GGG" /></tlLogic><tlLogic id="11294504656" type="static" programID="1" offset="45"><phase duration="3" state="yyy" /><phase duration="21" state="rrr" /><phase duration="20" state="GGG" /></tlLogic><tlLogic id="11294504659" type="static" programID="1" offset="45"><phase duration="21" state="GGG" /><phase duration="5" state="yyy" /><phase duration="21" state="rrr" /></tlLogic><tlLogic id="11294504660" type="static" programID="1" offset="45"><phase duration="2" state="yyy" /><phase duration="22" state="rrr" /><phase duration="21" state="GGG" /></tlLogic><tlLogic id="11301256000" type="static" programID="1" offset="42"><phase duration="21" state="GG" /><phase duration="1" state="yy" /><phase duration="18" state="rr" /></tlLogic><tlLogic id="11301256004" type="static" programID="1" offset="11"><phase duration="22" state="rr" /><phase duration="19" state="GG" /><phase duration="4" state="yy" /></tlLogic><tlLogic id="11301256013" type="static" programID="1" offset="36"><phase duration="5" state="yy" /><phase duration="20" state="rr" /><phase duration="21" state="GG" /></tlLogic><tlLogic id="11301256021" type="static" programID="1" offset="23"><phase duration="5" state="yyyyy" /><phase duration="19" state="rrrrr" /><phase duration="22" state="GGGGG" /></tlLogic><tlLogic id="11301256029" type="static" programID="1" offset="18"><phase duration="19" state="rr" /><phase duration="20" state="GG" /><phase duration="4" state="yy" /></tlLogic><tlLogic id="11301256033" type="static" programID="1" offset="9"><phase duration="19" state="GG" /><phase duration="4" state="yy" /><phase duration="19" state="rr" /></tlLogic><tlLogic id="11301256049" type="static" programID="1" offset="58"><phase duration="18" state="rrrr" /><phase duration="19" state="GGGG" /><phase duration="5" state="yyyy" /></tlLogic><tlLogic id="11301256051" type="static" programID="1" offset="11"><phase duration="18" state="rrrr" /><phase duration="19" state="GGGG" /><phase duration="5" state="yyyy" /></tlLogic><tlLogic id="11301256052" type="static" programID="1" offset="27"><phase duration="19" state="rrrr" /><phase duration="22" state="GGGG" /><phase duration="2" state="yyyy" /></tlLogic><tlLogic id="11301256053" type="static" programID="1" offset="47"><phase duration="18" state="rrrr" /><phase duration="20" state="GGGG" /><phase duration="3" state="yyyy" /></tlLogic><tlLogic id="11301256054" type="static" programID="1" offset="53"><phase duration="22" state="rrrr" /><phase duration="22" state="GGGG" /><phase duration="5" state="yyyy" /></tlLogic><tlLogic id="11301256055" type="static" programID="1" offset="47"><phase duration="5" state="yyyy" /><phase duration="20" state="rrrr" /><phase duration="19" state="GGGG" /></tlLogic><tlLogic id="11308686757" type="static" programID="1" offset="13"><phase duration="5" state="yy" /><phase duration="22" state="rr" /><phase duration="22" state="GG" /></tlLogic><tlLogic id="11308686763" type="static" programID="1" offset="35"><phase duration="19" state="rrrrrr" /><phase duration="18" state="GGGGGG" /><phase duration="2" state="yyyyyy" /></tlLogic><tlLogic id="11308686765" type="static" programID="1" offset="4"><phase duration="5" state="yyyyyy" /><phase duration="21" state="rrrrrr" /><phase duration="20" state="GGGGGG" /></tlLogic><tlLogic id="11308721688" type="static" programID="1" offset="25"><phase duration="4" state="yyyyy" /><phase duration="18" state="rrrrr" /><phase duration="19" state="GGGGG" /></tlLogic><tlLogic id="11308721690" type="static" programID="1" offset="33"><phase duration="19" stat