<?xml version="1.0" encoding="UTF-8"?>

<!-- generated on 2025-06-23 16:59:02.012571 by randomTrips.py UNKNOWN
<configuration>
    <net-file value="miami/osm.net.xml.gz"/>
    <output-trip-file value="miami/osm.passenger.trips.xml"/>
</configuration>
-->

<routes xmlns:xsi="http://www.w3.org/2001/XMLSchema-instance" xsi:noNamespaceSchemaLocation="http://sumo.dlr.de/xsd/routes_file.xsd">
    <trip id="0" depart="0.00" from="1197882702" to="-11117337#2"/>
    <trip id="1" depart="1.00" from="-190675532#4" to="-1322070424"/>
    <trip id="2" depart="2.00" from="190525244#4" to="1321799653"/>
    <trip id="3" depart="3.00" from="690062162" to="-11140953#3"/>
    <trip id="4" depart="4.00" from="1089772296" to="-11119123#7"/>
    <trip id="5" depart="5.00" from="-1309809730#0" to="11141945#13"/>
    <trip id="6" depart="6.00" from="-11118155#0" to="-119558744#1"/>
    <trip id="7" depart="7.00" from="125004810#4" to="11151690#1"/>
    <trip id="8" depart="8.00" from="-1314563090#1" to="11165392#8"/>
    <trip id="9" depart="9.00" from="398329024#1" to="-104757904#3"/>
    <trip id="10" depart="10.00" from="39091214" to="1377741240#1"/>
    <trip id="11" depart="11.00" from="-732289825#0" to="-11163088#1"/>
    <trip id="12" depart="12.00" from="859922093#3" to="-681756923#1"/>
    <trip id="13" depart="13.00" from="-11142520#1" to="-11143337#3"/>
    <trip id="14" depart="14.00" from="522184093#3" to="11169569#1"/>
    <trip id="15" depart="15.00" from="396424838" to="190525155#4"/>
    <trip id="16" depart="16.00" from="11149472#1" to="87573105#0"/>
    <trip id="17" depart="17.00" from="-889538924#1" to="11154238#1"/>
    <trip id="18" depart="18.00" from="47472232" to="1124372720#8"/>
    <trip id="19" depart="19.00" from="535280047#2" to="11163009#0"/>
    <trip id="20" depart="20.00" from="1378265227" to="-11124888#6"/>
    <trip id="21" depart="21.00" from="-1324680788#8" to="-230514595#7"/>
    <trip id="22" depart="22.00" from="-11139186#3" to="-135335333#1"/>
    <trip id="23" depart="23.00" from="-11143972#5" to="-190867805#0"/>
    <trip id="24" depart="24.00" from="1175001939#3" to="-835341342#2"/>
    <trip id="25" depart="25.00" from="-855922552#20" to="-128575961#3"/>
    <trip id="26" depart="26.00" from="-190532849#0" to="83131174#0"/>
    <trip id="27" depart="27.00" from="124955248#1" to="1121165905"/>
    <trip id="28" depart="28.00" from="-11167914#1" to="190525152#3"/>
    <trip id="29" depart="29.00" from="-11164104#7" to="-930577695#4"/>
    <trip id="30" depart="30.00" from="972011744#1" to="1215255205#1"/>
    <trip id="31" depart="31.00" from="11155166#2" to="1343348447"/>
    <trip id="32" depart="32.00" from="49239058#1" to="197933271#3"/>
    <trip id="33" depart="33.00" from="-134123814" to="-11119898#7"/>
    <trip id="34" depart="34.00" from="-534454622#3" to="-190545254#4"/>
    <trip id="35" depart="35.00" from="-128709041#3" to="835403742"/>
    <trip id="36" depart="36.00" from="588391706#5" to="-534491799#10"/>
    <trip id="37" depart="37.00" from="1280040496#0" to="1037151851"/>
    <trip id="38" depart="38.00" from="810904269#0" to="11127723#4"/>
    <trip id="39" depart="39.00" from="-190532694#6" to="-1382214229#3"/>
    <trip id="40" depart="40.00" from="11156436#6" to="-190532676#0"/>
    <trip id="41" depart="41.00" from="11163852#1" to="741593662#4"/>
    <trip id="42" depart="42.00" from="104757901#1" to="-1315009532#0"/>
    <trip id="43" depart="43.00" from="992921580" to="11142927#1"/>
    <trip id="44" depart="44.00" from="-11141945#12" to="-11126351#1"/>
    <trip id="45" depart="45.00" from="-11146609" to="1144608310#1"/>
    <trip id="46" depart="46.00" from="352828000#0" to="11104840"/>
    <trip id="47" depart="47.00" from="-11132822#2" to="-936999947#1"/>
    <trip id="48" depart="48.00" from="978887667#5" to="11147656#2"/>
    <trip id="49" depart="49.00" from="87553241" to="535279980#0"/>
    <trip id="50" depart="50.00" from="-1051889484" to="171270605#2"/>
    <trip id="51" depart="51.00" from="1323077493" to="11150178#8"/>
    <trip id="52" depart="52.00" from="-190532738#2" to="1218902125#6"/>
    <trip id="53" depart="53.00" from="-11147304#3" to="11118528#2"/>
    <trip id="54" depart="54.00" from="11123835#3" to="856005231#0"/>
    <trip id="55" depart="55.00" from="588391705#1" to="-190532694#2"/>
    <trip id="56" depart="56.00" from="11139961#2" to="-11169572#1"/>
    <trip id="57" depart="57.00" from="803497256#1" to="585144095#2"/>
    <trip id="58" depart="58.00" from="-420073415#1" to="1202349964"/>
    <trip id="59" depart="59.00" from="1120105896#0" to="-11161586#0"/>
    <trip id="60" depart="60.00" from="190867808#1" to="11150390#12"/>
    <trip id="61" depart="61.00" from="197933287" to="11147913#0"/>
    <trip id="62" depart="62.00" from="-1011118521#17" to="-585096332#3"/>
    <trip id="63" depart="63.00" from="-11115707#2" to="830167565#1"/>
    <trip id="64" depart="64.00" from="608520366#2" to="47472557#1"/>
    <trip id="65" depart="65.00" from="-49234662#1" to="-11131273#2"/>
    <trip id="66" depart="66.00" from="608197871#3" to="847838226#10"/>
    <trip id="67" depart="67.00" from="-11140281#3" to="11137076#13"/>
    <trip id="68" depart="68.00" from="-11134561#1" to="190867796"/>
    <trip id="69" depart="69.00" from="190871893#3" to="-11152713#1"/>
    <trip id="70" depart="70.00" from="11132320#0" to="11153275#0"/>
    <trip id="71" depart="71.00" from="-190532702#0" to="587326335#0"/>
    <trip id="72" depart="72.00" from="1108528267#4" to="-1299977783#2"/>
    <trip id="73" depart="73.00" from="11150207#13" to="190525156#4"/>
    <trip id="74" depart="74.00" from="-1218902125#0" to="-519223751#1"/>
    <trip id="75" depart="75.00" from="978877544" to="1253929739"/>
    <trip id="76" depart="76.00" from="11118628#1" to="11144189#0"/>
    <trip id="77" depart="77.00" from="-11150195#4" to="-1322465877"/>
    <trip id="78" depart="78.00" from="-681756923#0" to="11165263#13"/>
    <trip id="79" depart="79.00" from="-134407865#0" to="-1320226186#1"/>
    <trip id="80" depart="80.00" from="-11135921#7" to="1168246682"/>
    <trip id="81" depart="81.00" from="-1339794890#2" to="793665654#5"/>
    <trip id="82" depart="82.00" from="534930425#5" to="-11135921#8"/>
    <trip id="83" depart="83.00" from="-1377969964" to="1309199611#2"/>
    <trip id="84" depart="84.00" from="-1305038345#3" to="-11153464#1"/>
    <trip id="85" depart="85.00" from="83070673#4" to="11160500#4"/>
    <trip id="86" depart="86.00" from="11131747#0" to="287326461#1"/>
    <trip id="87" depart="87.00" from="396424866" to="-1144608295#2"/>
    <trip id="88" depart="88.00" from="-11143337#12" to="11117109#1"/>
    <trip id="89" depart="89.00" from="11103229#6" to="11130838#2"/>
    <trip id="90" depart="90.00" from="190525145#6" to="1313666301"/>
    <trip id="91" depart="91.00" from="930577695#20" to="-11143395#2"/>
    <trip id="92" depart="92.00" from="104946911#9" to="-733886319"/>
    <trip id="93" depart="93.00" from="535280047#1" to="-1382903785#2"/>
    <trip id="94" depart="94.00" from="-1131121576#3" to="11122527#5"/>
    <trip id="95" depart="95.00" from="1089772294" to="-190867806#7"/>
    <trip id="96" depart="96.00" from="-1382903785#1" to="82541657#2"/>
    <trip id="97" depart="97.00" from="11119952#6" to="535280048#2"/>
    <trip id="98" depart="98.00" from="11153183#3" to="-11128239#2"/>
    <trip id="99" depart="99.00" from="996949779" to="49234657#0"/>
    <trip id="100" depart="100.00" from="875312012" to="82541900#1"/>
    <trip id="101" depart="101.00" from="522403968#3" to="-11165838#3"/>
    <trip id="102" depart="102.00" from="11135967#6" to="-1305683506"/>
    <trip id="103" depart="103.00" from="1049255186#1" to="-11131334#0"/>
    <trip id="104" depart="104.00" from="-905732209" to="931175010#0"/>
    <trip id="105" depart="105.00" from="-190532704#1" to="280622211#1"/>
    <trip id="106" depart="106.00" from="11123949#4" to="11107283#1"/>
    <trip id="107" depart="107.00" from="859922094#2" to="978877547#3"/>
    <trip id="108" depart="108.00" from="11154838#0" to="159482675#0"/>
    <trip id="109" depart="109.00" from="-11162377#0" to="-419742964"/>
    <trip id="110" depart="110.00" from="87384034" to="11163201#4"/>
    <trip id="111" depart="111.00" from="11150405#0" to="190659903#6"/>
    <trip id="112" depart="112.00" from="-11130843#3" to="11163858#5"/>
    <trip id="113" depart="113.00" from="11140939#2" to="534630428"/>
    <trip id="114" depart="114.00" from="-11163198#1" to="86097736#1"/>
    <trip id="115" depart="115.00" from="-11139344#1" to="-1130563523"/>
    <trip id="116" depart="116.00" from="11167095#0" to="1320226186#1"/>
    <trip id="117" depart="117.00" from="-1370809821#0" to="-11150178#1"/>
    <trip id="118" depart="118.00" from="682330251#0" to="-1381148643"/>
    <trip id="119" depart="119.00" from="11167066#1" to="1125348857"/>
    <trip id="120" depart="120.00" from="1080284746#0" to="11163856#1"/>
    <trip id="121" depart="121.00" from="11146147#1" to="83070601#1"/>
    <trip id="122" depart="122.00" from="-1235728021#10" to="1385260628#1"/>
    <trip id="123" depart="123.00" from="-1378011910#10" to="1039101193#0"/>
    <trip id="124" depart="124.00" from="1309602903#3" to="-445305003#2"/>
    <trip id="125" depart="125.00" from="-534491799#3" to="190675519#4"/>
    <trip id="126" depart="126.00" from="-11136719#2" to="11127577#0"/>
    <trip id="127" depart="127.00" from="993098815" to="978887667#5"/>
    <trip id="128" depart="128.00" from="-11137076#14" to="-1305039957"/>
    <trip id="129" depart="129.00" from="-190532704#1" to="83069284#1"/>
    <trip id="130" depart="130.00" from="620253214#1" to="617152586#2"/>
    <trip id="131" depart="131.00" from="-855922551#1" to="-11163228#3"/>
    <trip id="132" depart="132.00" from="475883964#1" to="1378264937"/>
    <trip id="133" depart="133.00" from="1121632058#0" to="943163910"/>
    <trip id="134" depart="134.00" from="1272406875" to="-104946911#16"/>
    <trip id="135" depart="135.00" from="426828583#7" to="-429655253#1"/>
    <trip id="136" depart="136.00" from="1305038345#2" to="83150154"/>
    <trip id="137" depart="137.00" from="-11154315#3" to="-11148426#3"/>
    <trip id="138" depart="138.00" from="-11146149#3" to="11154636#3"/>
    <trip id="139" depart="139.00" from="-190659903#2" to="1118222778#3"/>
    <trip id="140" depart="140.00" from="1388748068" to="-1240960994#0"/>
    <trip id="141" depart="141.00" from="1174209944#2" to="-190532705#0"/>
    <trip id="142" depart="142.00" from="11137173#6" to="793665654#2"/>
    <trip id="143" depart="143.00" from="519223751#2" to="-11142518#2"/>
    <trip id="144" depart="144.00" from="11103229#6" to="-190693626#0"/>
    <trip id="145" depart="145.00" from="-1034283399" to="196417908#3"/>
    <trip id="146" depart="146.00" from="117635437" to="-190525223#2"/>
    <trip id="147" depart="147.00" from="190532764#0" to="11153888#6"/>
    <trip id="148" depart="148.00" from="11115704#1" to="-1050311187#2"/>
    <trip id="149" depart="149.00" from="-11137842#3" to="647043555#7"/>
    <trip id="150" depart="150.00" from="783885116" to="11151839#0"/>
    <trip id="151" depart="151.00" from="48422111#2" to="11163760#3"/>
    <trip id="152" depart="152.00" from="-11159404#0" to="-11151841#6"/>
    <trip id="153" depart="153.00" from="-49234795#3" to="744860794"/>
    <trip id="154" depart="154.00" from="38773109" to="535273605#1"/>
    <trip id="155" depart="155.00" from="741882381#9" to="-128709046#11"/>
    <trip id="156" depart="156.00" from="-1382718442" to="-11144818#1"/>
    <trip id="157" depart="157.00" from="199543155#2" to="671751823#1"/>
    <trip id="158" depart="158.00" from="1051222439#3" to="1127398056#1"/>
    <trip id="159" depart="159.00" from="-11162077#0" to="83041272#0"/>
    <trip id="160" depart="160.00" from="539450444" to="901265411#1"/>
    <trip id="161" depart="161.00" from="405469687#0" to="626346453#1"/>
    <trip id="162" depart="162.00" from="-11117290#12" to="190532639#0"/>
    <trip id="163" depart="163.00" from="-626346452#2" to="83041284#20"/>
    <trip id="164" depart="164.00" from="39065841" to="545201492#1"/>
    <trip id="165" depart="165.00" from="405469687#0" to="-190545197#0"/>
    <trip id="166" depart="166.00" from="293375990#0" to="-11146539#1"/>
    <trip id="167" depart="167.00" from="585600886#1" to="534930422#0"/>
    <trip id="168" depart="168.00" from="-1321779315#1" to="426828584#0"/>
    <trip id="169" depart="169.00" from="11127720#0" to="-484753293"/>
    <trip id="170" depart="170.00" from="38764550" to="-1337953161#3"/>
    <trip id="171" depart="171.00" from="-11117099#7" to="-1147831886#2"/>
    <trip id="172" depart="172.00" from="-588391704" to="545275803#12"/>
    <trip id="173" depart="173.00" from="86662200#0" to="-190867818#1"/>
    <trip id="174" depart="174.00" from="1215255217" to="104946910#7"/>
    <trip id="175" depart="175.00" from="911635107#1" to="11149897#3"/>
    <trip id="176" depart="176.00" from="83150157" to="-11148426#1"/>
    <trip id="177" depart="177.00" from="875379661#0" to="-11169565"/>
    <trip id="178" depart="178.00" from="86302405#1" to="-190532738#1"/>
    <trip id="179" depart="179.00" from="-11146532#4" to="11118503#6"/>
    <trip id="180" depart="180.00" from="190525144#4" to="-534454622#11"/>
    <trip id="181" depart="181.00" from="1118222778#5" to="11143337#11"/>
    <trip id="182" depart="182.00" from="-972048687#16" to="11162513#7"/>
    <trip id="183" depart="183.00" from="-171308833#0" to="1380217637#1"/>
    <trip id="184" depart="184.00" from="-1011729120#1" to="82541672#3"/>
    <trip id="185" depart="185.00" from="11150178#2" to="163069951#3"/>
    <trip id="186" depart="186.00" from="190545186#0" to="1309602903#4"/>
    <trip id="187" depart="187.00" from="-83150123#4" to="-11135749#1"/>
    <trip id="188" depart="188.00" from="1305510289#1" to="-620253216#2"/>
    <trip id="189" depart="189.00" from="-522403954#1" to="522403973#0"/>
    <trip id="190" depart="190.00" from="159934455#0" to="-445305023#0"/>
    <trip id="191" depart="191.00" from="-49238788#2" to="1055316758"/>
    <trip id="192" depart="192.00" from="104946911#3" to="-403303029#0"/>
    <trip id="193" depart="193.00" from="-11151691#0" to="1093094721#4"/>
    <trip id="194" depart="194.00" from="83197733#3" to="1321820103"/>
    <trip id="195" depart="195.00" from="778959642" to="1122256981#0"/>
    <trip id="196" depart="196.00" from="-429657157#1" to="11152954#0"/>
    <trip id="197" depart="197.00" from="-1011118521#13" to="-197933276#3"/>
    <trip id="198" depart="198.00" from="11115850#5" to="11163228#0"/>
    <trip id="199" depart="199.00" from="127683433#3" to="11130286#2"/>
    <trip id="200" depart="200.00" from="11119898#4" to="-1305510289#1"/>
    <trip id="201" depart="201.00" from="11131969#3" to="765622694#2"/>
    <trip id="202" depart="202.00" from="38771939" to="-11167106#8"/>
    <trip id="203" depart="203.00" from="-11139961#1" to="11143972#4"/>
    <trip id="204" depart="204.00" from="1170421097#0" to="-680631531#2"/>
    <trip id="205" depart="205.00" from="429655222" to="190675507#0"/>
    <trip id="206" depart="206.00" from="1311178473" to="-1322465876#8"/>
    <trip id="207" depart="207.00" from="-1175028694#4" to="-11117290#1"/>
    <trip id="208" depart="208.00" from="-1380180339" to="11132822#0"/>
    <trip id="209" depart="209.00" from="534444160#1" to="-11137076#1"/>
    <trip id="210" depart="210.00" from="1059895127#6" to="1152574792"/>
    <trip id="211" depart="211.00" from="-1148220251#2" to="1376720501#0"/>
    <trip id="212" depart="212.00" from="11139175#2" to="-1380182258"/>
    <trip id="213" depart="213.00" from="1281013132#1" to="-104757900#4"/>
    <trip id="214" depart="214.00" from="190675471#1" to="195485141#1"/>
    <trip id="215" depart="215.00" from="-11146147#2" to="11114953#2"/>
    <trip id="216" depart="216.00" from="-11168526#2" to="859922136#20"/>
    <trip id="217" depart="217.00" from="11143995#0" to="-11128195#3"/>
    <trip id="218" depart="218.00" from="-1382553128#4" to="522403982#1"/>
    <trip id="219" depart="219.00" from="11124888#3" to="39065445"/>
    <trip id="220" depart="220.00" from="1306343435" to="96325602#2"/>
    <trip id="221" depart="221.00" from="11167106#5" to="84829896#1"/>
    <trip id="222" depart="222.00" from="689301205#14" to="1121987499#7"/>
    <trip id="223" depart="223.00" from="159482672" to="11141874"/>
    <trip id="224" depart="224.00" from="47472503" to="11152927#4"/>
    <trip id="225" depart="225.00" from="739839202#1" to="190545257#3"/>
    <trip id="226" depart="226.00" from="11132252#1" to="-190525155#0"/>
    <trip id="227" depart="227.00" from="-1381051268" to="1197068766#2"/>
    <trip id="228" depart="228.00" from="190871893#2" to="11146147#6"/>
    <trip id="229" depart="229.00" from="1132464650#0" to="-190683254#1"/>
    <trip id="230" depart="230.00" from="-11138651#1" to="-196417927#4"/>
    <trip id="231" depart="231.00" from="-190659869#0" to="-534964542#3"/>
    <trip id="232" depart="232.00" from="11150213#0" to="-11155975#5"/>
    <trip id="233" depart="233.00" from="-134544956#1" to="1355256774#0"/>
    <trip id="234" depart="234.00" from="1379241234#7" to="-11133006#1"/>
    <trip id="235" depart="235.00" from="1051889481" to="11151133#3"/>
    <trip id="236" depart="236.00" from="1064454503" to="-1253823826#1"/>
    <trip id="237" depart="237.00" from="1085527287" to="788353103#1"/>
    <trip id="238" depart="238.00" from="11163765#0" to="1363311459#0"/>
    <trip id="239" depart="239.00" from="534872474#5" to="190871895"/>
    <trip id="240" depart="240.00" from="-915242586" to="-104757901#7"/>
    <trip id="241" depart="241.00" from="-821268537#8" to="190680597#5"/>
    <trip id="242" depart="242.00" from="534630428" to="855933747#1"/>
    <trip id="243" depart="243.00" from="1075983690#0" to="190659883#3"/>
    <trip id="244" depart="244.00" from="11151683#0" to="11169456#9"/>
    <trip id="245" depart="245.00" from="-1315009532#1" to="-1315038052"/>
    <trip id="246" depart="246.00" from="11118155#4" to="-11119105#1"/>
    <trip id="247" depart="247.00" from="-679950081#2" to="1322133032#2"/>
    <trip id="248" depart="248.00" from="1050311184" to="-11165392#0"/>
    <trip id="249" depart="249.00" from="11130439#2" to="-11151852#0"/>
    <trip id="250" depart="250.00" from="1128426556" to="-11118503#7"/>
    <trip id="251" depart="251.00" from="1029259633#1" to="11158361"/>
    <trip id="252" depart="252.00" from="-11118503#2" to="1221982751#1"/>
    <trip id="253" depart="253.00" from="-11154787#9" to="11129225#4"/>
    <trip id="254" depart="254.00" from="-11127834#2" to="-930577695#14"/>
    <trip id="255" depart="255.00" from="-1288794367" to="-588391703"/>
    <trip id="256" depart="256.00" from="190867794#1" to="-930577695#14"/>
    <trip id="257" depart="257.00" from="190675507#2" to="47472612#0"/>
    <trip id="258" depart="258.00" from="-1389878495#3" to="-11139757#3"/>
    <trip id="259" depart="259.00" from="-11115704#4" to="11150390#3"/>
    <trip id="260" depart="260.00" from="997807676" to="-821268537#5"/>
    <trip id="261" depart="261.00" from="125004815#0" to="230514595#10"/>
    <trip id="262" depart="262.00" from="1255718327" to="190680648#1"/>
    <trip id="263" depart="263.00" from="84829888#1" to="-1202349961#2"/>
    <trip id="264" depart="264.00" from="-11115750#2" to="-11161509#1"/>
    <trip id="265" depart="265.00" from="-11151648" to="1309358440#0"/>
    <trip id="266" depart="266.00" from="11157543#1" to="-1311471458#8"/>
    <trip id="267" depart="267.00" from="1377766988#0" to="191920968#1"/>
    <trip id="268" depart="268.00" from="-11166507#5" to="1120069960"/>
    <trip id="269" depart="269.00" from="190659868" to="-11147898"/>
    <trip id="270" depart="270.00" from="429655249#6" to="865165384#4"/>
    <trip id="271" depart="271.00" from="-11146286#2" to="-11117489#6"/>
    <trip id="272" depart="272.00" from="-513026300#0" to="1321825869"/>
    <trip id="273" depart="273.00" from="859922136#22" to="1044047787#0"/>
    <trip id="274" depart="274.00" from="1382907555" to="-11137905#0"/>
    <trip id="275" depart="275.00" from="135310778#0" to="1144608308#1"/>
    <trip id="276" depart="276.00" from="-11143998#0" to="196417914#0"/>
    <trip id="277" depart="277.00" from="534454622#13" to="11168536#10"/>
    <trip id="278" depart="278.00" from="-11150211" to="930577695#15"/>
    <trip id="279" depart="279.00" from="230852029#1" to="-798513530#1"/>
    <trip id="280" depart="280.00" from="11115721#5" to="-856193616#1"/>
    <trip id="281" depart="281.00" from="11141854#4" to="-741882381#2"/>
    <trip id="282" depart="282.00" from="534422157" to="445305080"/>
    <trip id="283" depart="283.00" from="-11145410#8" to="86097736#1"/>
    <trip id="284" depart="284.00" from="1175001939#15" to="468534344"/>
    <trip id="285" depart="285.00" from="1379290014" to="11118609#5"/>
    <trip id="286" depart="286.00" from="190525209#3" to="865521317#7"/>
    <trip id="287" depart="287.00" from="-190557193#2" to="398329013"/>
    <trip id="288" depart="288.00" from="11149907#2" to="11135967#2"/>
    <trip id="289" depart="289.00" from="11117782#0" to="190525160#1"/>
    <trip id="290" depart="290.00" from="-190545213#3" to="534491913#2"/>
    <trip id="291" depart="291.00" from="47472508" to="-11140737#6"/>
    <trip id="292" depart="292.00" from="626299871#3" to="-1380181192#5"/>
    <trip id="293" depart="293.00" from="11129591#0" to="1121632058#2"/>
    <trip id="294" depart="294.00" from="-905732209" to="-11118940#1"/>
    <trip id="295" depart="295.00" from="534481286" to="-1122250324#2"/>
    <trip id="296" depart="296.00" from="-1289151270#1" to="38905716#0"/>
    <trip id="297" depart="297.00" from="-732350372#0" to="619351449#1"/>
    <trip id="298" depart="298.00" from="1378011910#13" to="-190693625#0"/>
    <trip id="299" depart="299.00" from="-105108013#1" to="84829882#0"/>
    <trip id="300" depart="300.00" from="-11140281#2" to="167158233#4"/>
    <trip id="301" depart="301.00" from="11137173#7" to="190693638#2"/>
    <trip id="302" depart="302.00" from="135310778#0" to="1240960994#1"/>
    <trip id="303" depart="303.00" from="11137899#2" to="378695341#0"/>
    <trip id="304" depart="304.00" from="-11142535#0" to="-1321803882#1"/>
    <trip id="305" depart="305.00" from="135310839#10" to="-49234662#0"/>
    <trip id="306" depart="306.00" from="11163287#0" to="11132285#1"/>
    <trip id="307" depart="307.00" from="11147656#2" to="11115489#1"/>
    <trip id="308" depart="308.00" from="190557193#3" to="-626346453#0"/>
    <trip id="309" depart="309.00" from="1378253857#1" to="-190659903#0"/>
    <trip id="310" depart="310.00" from="-1384554707" to="-11150213#0"/>
    <trip id="311" depart="311.00" from="-1145626095#2" to="-11149897#1"/>
    <trip id="312" depart="312.00" from="11149470#1" to="190867818#2"/>
    <trip id="313" depart="313.00" from="-1124372720#4" to="-1308981069#1"/>
    <trip id="314" depart="314.00" from="11135733#5" to="190525118"/>
    <trip id="315" depart="315.00" from="901503234#0" to="11146559#2"/>
    <trip id="316" depart="316.00" from="-190867852#2" to="-11143972#3"/>
    <trip id="317" depart="317.00" from="-1147831886#1" to="-1337953161#0"/>
    <trip id="318" depart="318.00" from="-11169565" to="-1059895127#10"/>
    <trip id="319" depart="319.00" from="11148666#2" to="-190680604#1"/>
    <trip id="320" depart="320.00" from="87573115#1" to="11154640#2"/>
    <trip id="321" depart="321.00" from="1376720501#1" to="-11151687#1"/>
    <trip id="322" depart="322.00" from="585095689#0" to="11138220#3"/>
    <trip id="323" depart="323.00" from="586198844#1" to="11161509#10"/>
    <trip id="324" depart="324.00" from="11130855#5" to="11119898#7"/>
    <trip id="325" depart="325.00" from="-1124152026#4" to="-11128688#0"/>
    <trip id="326" depart="326.00" from="831991569#2" to="11133216#1"/>
    <trip id="327" depart="327.00" from="445305026#0" to="104946912#11"/>
    <trip id="328" depart="328.00" from="-11137175#3" to="1147929831#1"/>
    <trip id="329" depart="329.00" from="-11129595#1" to="-11160307#1"/>
    <trip id="330" depart="330.00" from="11156789#2" to="-47472241"/>
    <trip id="331" depart="331.00" from="977066580#0" to="-11149664"/>
    <trip id="332" depart="332.00" from="190867833#0" to="1119614327"/>
    <trip id="333" depart="333.00" from="346004434#1" to="-1324030161"/>
    <trip id="334" depart="334.00" from="11146144#0" to="11123537#1"/>
    <trip id="335" depart="335.00" from="11119939#3" to="534968060#0"/>
    <trip id="336" depart="336.00" from="972048687#19" to="-491844286#2"/>
    <trip id="337" depart="337.00" from="1125373091#2" to="1121236885#0"/>
    <trip id="338" depart="338.00" from="190532709#4" to="847838226#26"/>
    <trip id="339" depart="339.00" from="-125004815#6" to="-129195266"/>
    <trip id="340" depart="340.00" from="129195219" to="-11163212#5"/>
    <trip id="341" depart="341.00" from="-11168082#3" to="-11137842#5"/>
    <trip id="342" depart="342.00" from="-1030798708#0" to="11123537#0"/>
    <trip id="343" depart="343.00" from="11166962#5" to="-293376004"/>
    <trip id="344" depart="344.00" from="-134682852#0" to="1379643269#1"/>
    <trip id="345" depart="345.00" from="1378255421" to="11124630#2"/>
    <trip id="346" depart="346.00" from="134544909#0" to="82541664#8"/>
    <trip id="347" depart="347.00" from="293375992#2" to="1131121576#3"/>
    <trip id="348" depart="348.00" from="1298654357" to="83069299#6"/>
    <trip id="349" depart="349.00" from="11107285#3" to="11151683#6"/>
    <trip id="350" depart="350.00" from="124955245#5" to="798505406#3"/>
    <trip id="351" depart="351.00" from="445329745#2" to="-11135968#2"/>
    <trip id="352" depart="352.00" from="-11165392#12" to="-49235403#9"/>
    <trip id="353" depart="353.00" from="190659909#4" to="11159636#4"/>
    <trip id="354" depart="354.00" from="-197933289#0" to="-11151063#8"/>
    <trip id="355" depart="355.00" from="134544925" to="1378003020#0"/>
    <trip id="356" depart="356.00" from="835336547#5" to="11140372#7"/>
    <trip id="357" depart="357.00" from="11139162#3" to="-11139387#11"/>
    <trip id="358" depart="358.00" from="-11122298#9" to="11117290#10"/>
    <trip id="359" depart="359.00" from="-535287841" to="-1385260624#0"/>
    <trip id="360" depart="360.00" from="-11141945#21" to="86250049#1"/>
    <trip id="361" depart="361.00" from="484753292#0" to="11161674#2"/>
    <trip id="362" depart="362.00" from="84829906#4" to="997117007#3"/>
    <trip id="363" depart="363.00" from="1309809731#1" to="-190638184"/>
    <trip id="364" depart="364.00" from="-11122527#3" to="190693575"/>
    <trip id="365" depart="365.00" from="11131273#2" to="1262068417#2"/>
    <trip id="366" depart="366.00" from="812673951#0" to="-1121165905"/>
    <trip id="367" depart="367.00" from="11163858#1" to="1175001942#0"/>
    <trip id="368" depart="368.00" from="11138085#7" to="-11141945#8"/>
    <trip id="369" depart="369.00" from="-793698405#2" to="-671751823#20"/>
    <trip id="370" depart="370.00" from="1309199612" to="534920289#3"/>
    <trip id="371" depart="371.00" from="-608520363#9" to="135335334#0"/>
    <trip id="372" depart="372.00" from="-197933274#6" to="846947656#15"/>
    <trip id="373" depart="373.00" from="424065171#1" to="11153277#1"/>
    <trip id="374" depart="374.00" from="11123949#0" to="-534491413#2"/>
    <trip id="375" depart="375.00" from="-545275803#1" to="875379659#1"/>
    <trip id="376" depart="376.00" from="1050311180" to="11143506#5"/>
    <trip id="377" depart="377.00" from="96325602#6" to="1289028056"/>
    <trip id="378" depart="378.00" from="11151045#4" to="1061087840"/>
    <trip id="379" depart="379.00" from="-1130563535#0" to="-83138844#1"/>
    <trip id="380" depart="380.00" from="190693567#6" to="1132464650#1"/>
    <trip id="381" depart="381.00" from="190819750#1" to="-1239810553"/>
    <trip id="382" depart="382.00" from="11152718#2" to="829275277#1"/>
    <trip id="383" depart="383.00" from="11118628#1" to="1377759304"/>
    <trip id="384" depart="384.00" from="-11150224#1" to="87573105#1"/>
    <trip id="385" depart="385.00" from="1120094783#1" to="-1378260677#1"/>
    <trip id="386" depart="386.00" from="-11163220#6" to="11153282#6"/>
    <trip id="387" depart="387.00" from="11153282#1" to="-11142622#15"/>
    <trip id="388" depart="388.00" from="976148270#1" to="808997952"/>
    <trip id="389" depart="389.00" from="11128195#1" to="-11148993#2"/>
    <trip id="390" depart="390.00" from="47472556" to="11139954#2"/>
    <trip id="391" depart="391.00" from="1384555954#0" to="11142625#6"/>
    <trip id="392" depart="392.00" from="-190659931#4" to="484687935"/>
    <trip id="393" depart="393.00" from="907251888" to="-1380181192#1"/>
    <trip id="394" depart="394.00" from="11153248#1" to="-972048687#3"/>
    <trip id="395" depart="395.00" from="82541605#6" to="11142622#2"/>
    <trip id="396" depart="396.00" from="617152572#2" to="545201492#0"/>
    <trip id="397" depart="397.00" from="-190693565#11" to="346004434#0"/>
    <trip id="398" depart="398.00" from="1059905547#4" to="83070579#2"/>
    <trip id="399" depart="399.00" from="11141945#7" to="445305009#0"/>
    <trip id="400" depart="400.00" from="-190867847#3" to="-426828584#3"/>
    <trip id="401" depart="401.00" from="11164104#5" to="994835932#0"/>
    <trip id="402" depart="402.00" from="11137366#1" to="-11159636#6"/>
    <trip id="403" depart="403.00" from="11150178#6" to="-788353103#1"/>
    <trip id="404" depart="404.00" from="11153279#0" to="11151603#1"/>
    <trip id="405" depart="405.00" from="11124489#2" to="-545201492#1"/>
    <trip id="406" depart="406.00" from="-1130565221#6" to="1377394677#0"/>
    <trip id="407" depart="407.00" from="11160316#1" to="-1364966447"/>
    <trip id="408" depart="408.00" from="196417934#27" to="-11123940#10"/>