<?xml version="1.0" encoding="UTF-8"?>
<additional><tlLogic id="10025011518" type="static" programID="0" offset="34"><phase duration="20" state="GG" /><phase duration="3" state="yy" /><phase duration="20" state="rr" /></tlLogic><tlLogic id="10025011519" type="static" programID="0" offset="5"><phase duration="20" state="GGGG" /><phase duration="3" state="yyyy" /><phase duration="20" state="rrrr" /></tlLogic><tlLogic id="10025011520" type="static" programID="0" offset="2"><phase duration="20" state="GGG" /><phase duration="3" state="yyy" /><phase duration="20" state="rrr" /></tlLogic><tlLogic id="10025011522" type="static" programID="0" offset="14"><phase duration="20" state="GG" /><phase duration="3" state="yy" /><phase duration="20" state="rr" /></tlLogic><tlLogic id="10025011534" type="static" programID="0" offset="24"><phase duration="20" state="GG" /><phase duration="3" state="yy" /><phase duration="20" state="rr" /></tlLogic><tlLogic id="10025011565" type="static" programID="0" offset="7"><phase duration="20" state="G" /><phase duration="3" state="y" /><phase duration="20" state="r" /></tlLogic><tlLogic id="10025011566" type="static" programID="0" offset="25"><phase duration="20" state="GG" /><phase duration="3" state="yy" /><phase duration="20" state="rr" /></tlLogic><tlLogic id="10025011569" type="static" programID="0" offset="38"><phase duration="20" state="GG" /><phase duration="3" state="yy" /><phase duration="20" state="rr" /></tlLogic><tlLogic id="10073295523" type="static" programID="0" offset="40"><phase duration="20" state="GGG" /><phase duration="3" state="yyy" /><phase duration="20" state="rrr" /></tlLogic><tlLogic id="10073295525" type="static" programID="0" offset="2"><phase duration="20" state="GGG" /><phase duration="3" state="yyy" /><phase duration="20" state="rrr" /></tlLogic><tlLogic id="10073295528" type="static" programID="0" offset="38"><phase duration="20" state="GGG" /><phase duration="3" state="yyy" /><phase duration="20" state="rrr" /></tlLogic><tlLogic id="10073295538" type="static" programID="0" offset="36"><phase duration="20" state="GG" /><phase duration="3" state="yy" /><phase duration="20" state="rr" /></tlLogic><tlLogic id="10073295542" type="static" programID="0" offset="38"><phase duration="20" state="GG" /><phase duration="3" state="yy" /><phase duration="20" state="rr" /></tlLogic><tlLogic id="10073295582" type="static" programID="0" offset="21"><phase duration="20" state="GG" /><phase duration="3" state="yy" /><phase duration="20" state="rr" /></tlLogic><tlLogic id="10073295585" type="static" programID="0" offset="9"><phase duration="20" state="GG" /><phase duration="3" state="yy" /><phase duration="20" state="rr" /></tlLogic><tlLogic id="10073295591" type="static" programID="0" offset="11"><phase duration="20" state="GG" /><phase duration="3" state="yy" /><phase duration="20" state="rr" /></tlLogic><tlLogic id="10125437779" type="static" programID="0" offset="37"><phase duration="18" state="GGgGrrrr" /><phase duration="3" state="yyyGrrrr" /><phase duration="2" state="rrrrrrrr" /><phase duration="19" state="rrrGGGGG" /><phase duration="3" state="rrrGyyyy" /></tlLogic><tlLogic id="10139851463" type="static" programID="0" offset="12"><phase duration="18" state="GGGGGGgrrrr" /><phase duration="3" state="Gyyyyyyrrrr" /><phase duration="2" state="rrrrrrrrrrr" /><phase duration="19" state="GrrrrrrGGGg" /><phase duration="3" state="Grrrrrryyyy" /></tlLogic><tlLogic id="10172657881" type="static" programID="0" offset="5"><phase duration="20" state="GG" /><phase duration="3" state="yy" /><phase duration="20" state="rr" /></tlLogic><tlLogic id="10172695966" type="static" programID="0" offset="37"><phase duration="20" state="GG" /><phase duration="3" state="yy" /><phase duration="20" state="rr" /></tlLogic><tlLogic id="10172695970" type="static" programID="0" offset="25"><phase duration="20" state="GG" /><phase duration="3" state="yy" /><phase duration="20" state="rr" /></tlLogic><tlLogic id="10172695973" type="static" programID="0" offset="7"><phase duration="20" state="GGGGG" /><phase duration="3" state="yyyyy" /><phase duration="20" state="rrrrr" /></tlLogic><tlLogic id="10172696002" type="static" programID="0" offset="39"><phase duration="20" state="GGGG" /><phase duration="3" state="yyyy" /><phase duration="20" state="rrrr" /></tlLogic><tlLogic id="10172696006" type="static" programID="0" offset="12"><phase duration="20" state="GG" /><phase duration="3" state="yy" /><phase duration="20" state="rr" /></tlLogic><tlLogic id="10172696051" type="static" programID="0" offset="2"><phase duration="20" state="GG" /><phase duration="3" state="yy" /><phase duration="20" state="rr" /></tlLogic><tlLogic id="10172696052" type="static" programID="0" offset="23"><phase duration="20" state="GGGGG" /><phase duration="3" state="yyyyy" /><phase duration="20" state="rrrrr" /></tlLogic><tlLogic id="10172696053" type="static" programID="0" offset="21"><phase duration="20" state="GGGG" /><phase duration="3" state="yyyy" /><phase duration="20" state="rrrr" /></tlLogic><tlLogic id="10172696054" type="static" programID="0" offset="29"><phase duration="20" state="GG" /><phase duration="3" state="yy" /><phase duration="20" state="rr" /></tlLogic><tlLogic id="10199019532" type="static" programID="0" offset="27"><phase duration="18" state="GGGGGGgrrrr" /><phase duration="3" state="Gyyyyyyrrrr" /><phase duration="2" state="rrrrrrrrrrr" /><phase duration="19" state="GrrrrrrGGGg" /><phase duration="3" state="Grrrrrryyyy" /></tlLogic><tlLogic id="10199019536" type="static" programID="0" offset="28"><phase duration="18" state="GGGGGGgrrrr" /><phase duration="3" state="Gyyyyyyrrrr" /><phase duration="2" state="rrrrrrrrrrr" /><phase duration="19" state="GrrrrrrGGGg" /><phase duration="3" state="Grrrrrryyyy" /></tlLogic><tlLogic id="10199019541" type="static" programID="0" offset="22"><phase duration="18" state="GGGGGGgrrrr" /><phase duration="3" state="Gyyyyyyrrrr" /><phase duration="2" state="rrrrrrrrrrr" /><phase duration="19" state="GrrrrrrGGGg" /><phase duration="3" state="Grrrrrryyyy" /></tlLogic><tlLogic id="10227827561" type="static" programID="0" offset="8"><phase duration="18" state="GGGGGGgrrrr" /><phase duration="3" state="Gyyyyyyrrrr" /><phase duration="2" state="rrrrrrrrrrr" /><phase duration="19" state="GrrrrrrGGGg" /><phase duration="3" state="Grrrrrryyyy" /></tlLogic><tlLogic id="10233909441" type="static" programID="0" offset="2"><phase duration="20" state="GGG" /><phase duration="3" state="yyy" /><phase duration="20" state="rrr" /></tlLogic><tlLogic id="10233909449" type="static" programID="0" offset="22"><phase duration="20" state="GGGG" /><phase duration="3" state="yyyy" /><phase duration="20" state="rrrr" /></tlLogic><tlLogic id="10234099497" type="static" programID="0" offset="31"><phase duration="20" state="GG" /><phase duration="3" state="yy" /><phase duration="20" state="rr" /></tlLogic><tlLogic id="10234099515" type="static" programID="0" offset="36"><phase duration="20" state="GG" /><phase duration="3" state="yy" /><phase duration="20" state="rr" /></tlLogic><tlLogic id="10234213881" type="static" programID="0" offset="38"><phase duration="20" state="GGG" /><phase duration="3" state="yyy" /><phase duration="20" state="rrr" /></tlLogic><tlLogic id="10234213884" type="static" programID="0" offset="3"><phase duration="20" state="GG" /><phase duration="3" state="yy" /><phase duration="20" state="rr" /></tlLogic><tlLogic id="10234213908" type="static" programID="0" offset="5"><phase duration="20" state="GG" /><phase duration="3" state="yy" /><phase duration="20" state="rr" /></tlLogic><tlLogic id="10234213912" type="static" programID="0" offset="32"><phase duration="20" state="GGGG" /><phase duration="3" state="yyyy" /><phase duration="20" state="rrrr" /></tlLogic><tlLogic id="10234213914" type="static" programID="0" offset="38"><phase duration="20" state="GGGG" /><phase duration="3" state="yyyy" /><phase duration="20" state="rrrr" /></tlLogic><tlLogic id="10234213915" type="static" programID="0" offset="30"><phase duration="20" state="GG" /><phase duration="3" state="yy" /><phase duration="20" state="rr" /></tlLogic><tlLogic id="10234227718" type="static" programID="0" offset="36"><phase duration="20" state="GG" /><phase duration="3" state="yy" /><phase duration="20" state="rr" /></tlLogic><tlLogic id="10234227739" type="static" programID="0" offset="33"><phase duration="20" state="G" /><phase duration="3" state="y" /><phase duration="20" state="r" /></tlLogic><tlLogic id="10234227740" type="static" programID="0" offset="32"><phase duration="20" state="G" /><phase duration="3" state="y" /><phase duration="20" state="r" /></tlLogic><tlLogic id="10234388652" type="static" programID="0" offset="29"><phase duration="20" state="GGG" /><phase duration="3" state="yyy" /><phase duration="20" state="rrr" /></tlLogic><tlLogic id="10234388654" type="static" programID="0" offset="4"><phase duration="20" state="GGGG" /><phase duration="3" state="yyyy" /><phase duration="20" state="rrrr" /></tlLogic><tlLogic id="10234388685" type="static" programID="0" offset="28"><phase duration="20" state="GGG" /><phase duration="3" state="yyy" /><phase duration="20" state="rrr" /></tlLogic><tlLogic id="10234456010" type="static" programID="0" offset="14"><phase duration="20" state="GG" /><phase duration="3" state="yy" /><phase duration="20" state="rr" /></tlLogic><tlLogic id="10234456012" type="static" programID="0" offset="26"><phase duration="20" state="GG" /><phase duration="3" state="yy" /><phase duration="20" state="rr" /></tlLogic><tlLogic id="10234456014" type="static" programID="0" offset="4"><phase duration="20" state="GG" /><phase duration="3" state="yy" /><phase duration="20" state="rr" /></tlLogic><tlLogic id="10234456015" type="static" programID="0" offset="4"><phase duration="20" state="GG" /><phase duration="3" state="yy" /><phase duration="20" state="rr" /></tlLogic><tlLogic id="10234464375" type="static" programID="0" offset="7"><phase duration="20" state="GG" /><phase duration="3" state="yy" /><phase duration="20" state="rr" /></tlLogic><tlLogic id="10234464404" type="static" programID="0" offset="39"><phase duration="20" state="GG" /><phase duration="3" state="yy" /><phase duration="20" state="rr" /></tlLogic><tlLogic id="10234464416" type="static" programID="0" offset="37"><phase duration="20" state="GG" /><phase duration="3" state="yy" /><phase duration="20" state="rr" /></tlLogic><tlLogic id="10234478018" type="static" programID="0" offset="27"><phase duration="20" state="GG" /><phase duration="3" state="yy" /><phase duration="20" state="rr" /></tlLogic><tlLogic id="10234478022" type="static" programID="0" offset="19"><phase duration="20" state="GG" /><phase duration="3" state="yy" /><phase duration="20" state="rr" /></tlLogic><tlLogic id="10234478023" type="static" programID="0" offset="12"><phase duration="20" state="GG" /><phase duration="3" state="yy" /><phase duration="20" state="rr" /></tlLogic><tlLogic id="10234494939" type="static" programID="0" offset="22"><phase duration="20" state="GG" /><phase duration="3" state="yy" /><phase duration="20" state="rr" /></tlLogic><tlLogic id="10234494940" type="static" programID="0" offset="16"><phase duration="20" state="GG" /><phase duration="3" state="yy" /><phase duration="20" state="rr" /></tlLogic><tlLogic id="10234494941" type="static" programID="0" offset="16"><phase duration="20" state="GG" /><phase duration="3" state="yy" /><phase duration="20" state="rr" /></tlLogic><tlLogic id="10234494942" type="static" programID="0" offset="3"><phase duration="20" state="GG" /><phase duration="3" state="yy" /><phase duration="20" state="rr" /></tlLogic><tlLogic id="10234494999" type="static" programID="0" offset="22"><phase duration="20" state="GG" /><phase duration="3" state="yy" /><phase duration="20" state="rr" /></tlLogic><tlLogic id="10234495000" type="static" programID="0" offset="18"><phase duration="20" state="GG" /><phase duration="3" state="yy" /><phase duration="20" state="rr" /></tlLogic><tlLogic id="10234495001" type="static" programID="0" offset="33"><phase duration="20" state="GG" /><phase duration="3" state="yy" /><phase duration="20" state="rr" /></tlLogic><tlLogic id="10234495002" type="static" programID="0" offset="5"><phase duration="20" state="GG" /><phase duration="3" state="yy" /><phase duration="20" state="rr" /></tlLogic><tlLogic id="10234519169" type="static" programID="0" offset="17"><phase duration="20" state="GG" /><phase duration="3" state="yy" /><phase duration="20" state="rr" /></tlLogic><tlLogic id="10234519170" type="static" programID="0" offset="26"><phase duration="20" state="GG" /><phase duration="3" state="yy" /><phase duration="20" state="rr" /></tlLogic><tlLogic id="10234519171" type="static" programID="0" offset="36"><phase duration="20" state="GG" /><phase duration="3" state="yy" /><phase duration="20" state="rr" /></tlLogic><tlLogic id="10255389076" type="static" programID="0" offset="7"><phase duration="18" state="GGgGrrrr" /><phase duration="3" state="yyyGrrrr" /><phase duration="2" state="rrrrrrrr" /><phase duration="19" state="rrrGGGGG" /><phase duration="3" state="rrrGyyyy" /></tlLogic><tlLogic id="10293213598" type="static" programID="0" offset="14"><phase duration="18" state="GGGgrrrrGGG" /><phase duration="3" state="yyyyrrrrGyy" /><phase duration="2" state="rrrrrrrrrrr" /><phase duration="19" state="rrrrGGGgGrr" /><phase duration="3" state="rrrryyyyGrr" /></tlLogic><tlLogic id="10293213602" type="static" programID="0" offset="8"><phase duration="18" state="GGGgrrrrGGG" /><phase duration="3" state="yyyyrrrrGyy" /><phase duration="2" state="rrrrrrrrrrr" /><phase duration="19" state="rrrrGGGgGrr" /><phase duration="3" state="rrrryyyyGrr" /></tlLogic><tlLogic id="10536933721" type="static" programID="0" offset="11"><phase duration="20" state="GGGGG" /><phase duration="3" state="yyyyy" /><phase duration="20" state="rrrrr" /></tlLogic><tlLogic id="10536933723" type="static" programID="0" offset="2"><phase duration="20" state="GG" /><phase duration="3" state="yy" /><phase duration="20" state="rr" /></tlLogic><tlLogic id="10536933724" type="static" programID="0" offset="9"><phase duration="20" state="GGGGG" /><phase duration="3" state="yyyyy" /><phase duration="20" state="rrrrr" /></tlLogic><tlLogic id="10536933726" type="static" programID="0" offset="21"><phase duration="20" state="GG" /><phase duration="3" state="yy" /><phase duration="20" state="rr" /></tlLogic><tlLogic id="10536933736" type="static" programID="0" offset="7"><phase duration="20" state="GGGG" /><phase duration="3" state="yyyy" /><phase duration="20" state="rrrr" /></tlLogic><tlLogic id="10536933741" type="static" programID="0" offset="4"><phase duration="20" state="GGGG" /><phase duration="3" state="yyyy" /><phase duration="20" state="rrrr" /></tlLogic><tlLogic id="10536933744" type="static" programID="0" offset="8"><phase duration="20" state="GGGG" /><phase duration="3" state="yyyy" /><phase duration="20" state="rrrr" /></tlLogic><tlLogic id="10536933747" type="static" programID="0" offset="39"><phase duration="20" state="GGGGG" /><phase duration="3" state="yyyyy" /><phase duration="20" state="rrrrr" /></tlLogic><tlLogic id="10536933750" type="static" programID="0" offset="25"><phase duration="20" state="GGGGG" /><phase duration="3" state="yyyyy" /><phase duration="20" state="rrrrr" /></tlLogic><tlLogic id="10728674106" type="static" programID="0" offset="17"><phase duration="20" state="GGGGG" /><phase duration="3" state="yyyyy" /><phase duration="20" state="rrrrr" /></tlLogic><tlLogic id="10728674543" type="static" programID="0" offset="2"><phase duration="20" state="GGGG" /><phase duration="3" state="yyyy" /><phase duration="20" state="rrrr" /></tlLogic><tlLogic id="10728674545" type="static" programID="0" offset="4"><phase duration="20" state="GG" /><phase duration="3" state="yy" /><phase duration="20" state="rr" /></tlLogic><tlLogic id="10728674547" type="static" programID="0" offset="8"><phase duration="20" state="GGGG" /><phase duration="3" state="yyyy" /><phase duration="20" state="rrrr" /></tlLogic><tlLogic id="10755248962" type="static" programID="0" offset="2"><phase duration="20" state="GG" /><phase duration="3" state="yy" /><phase duration="20" state="rr" /></tlLogic><tlLogic id="10755248963" type="static" programID="0" offset="21"><phase duration="20" state="GG" /><phase duration="3" state="yy" /><phase duration="20" state="rr" /></tlLogic><tlLogic id="10755248964" type="static" programID="0" offset="7"><phase duration="20" state="GGGG" /><phase duration="3" state="yyyy" /><phase duration="20" state="rrrr" /></tlLogic><tlLogic id="10755248965" type="static" programID="0" offset="12"><phase duration="20" state="GGG" /><phase duration="3" state="yyy" /><phase duration="20" state="rrr" /></tlLogic><tlLogic id="10767868495" type="static" programID="0" offset="24"><phase duration="20" state="GG" /><phase duration="3" state="yy" /><phase duration="20" state="rr" /></tlLogic><tlLogic id="10767868496" type="static" programID="0" offset="34"><phase duration="20" state="GG" /><phase duration="3" state="yy" /><phase duration="20" state="rr" /></tlLogic><tlLogic id="10767891625" type="static" programID="0" offset="16"><phase duration="20" state="GG" /><phase duration="3" state="yy" /><phase duration="20" state="rr" /></tlLogic><tlLogic id="10767891626" type="static" programID="0" offset="24"><phase duration="20" state="GGGG" /><phase duration="3" state="yyyy" /><phase duration="20" state="rrrr" /></tlLogic><tlLogic id="10767891627" type="static" programID="0" offset="0"><phase duration="20" state="GG" /><phase duration="3" state="yy" /><phase duration="20" state="rr" /></tlLogic><tlLogic id="10767891628" type="static" programID="0" offset="27"><phase duration="20" state="GGGG" /><phase duration="3" state="yyyy" /><phase duration="20" state="rrrr" /></tlLogic><tlLogic id="10767900308" type="static" programID="0" offset="10"><phase duration="20" state="GGGGG" /><phase duration="3" state="yyyyy" /><phase duration="20" state="rrrrr" /></tlLogic><tlLogic id="10767900309" type="static" programID="0" offset="31"><phase duration="20" state="GGGGG" /><phase duration="3" state="yyyyy" /><phase duration="20" state="rrrrr" /></tlLogic><tlLogic id="10767900310" type="static" programID="0" offset="13"><phase duration="20" state="GGGGG" /><phase duration="3" state="yyyyy" /><phase duration="20" state="rrrrr" /></tlLogic><tlLogic id="10767900311" type="static" programID="0" offset="35"><phase duration="20" state="GGGGG" /><phase duration="3" state="yyyyy" /><phase duration="20" state="rrrrr" /></tlLogic><tlLogic id="10767906972" type="static" programID="0" offset="34"><phase duration="20" state="GGGGG" /><phase duration="3" state="yyyyy" /><phase duration="20" state="rrrrr" /></tlLogic><tlLogic id="10767906973" type="static" programID="0" offset="4"><phase duration="20" state="GG" /><phase duration="3" state="yy" /><phase duration="20" state="rr" /></tlLogic><tlLogic id="10767906974" type="static" programID="0" offset="1"><phase duration="20" state="GG" /><phase duration="3" state="yy" /><phase duration="20" state="rr" /></tlLogic><tlLogic id="10768031787" type="static" programID="0" offset="33"><phase duration="20" state="GGGG" /><phase duration="3" state="yyyy" /><phase duration="20" state="rrrr" /></tlLogic><tlLogic id="10768031788" type="static" programID="0" offset="29"><phase duration="20" state="GG" /><phase duration="3" state="yy" /><phase duration="20" state="rr" /></tlLogic><tlLogic id="10768031789" type="static" programID="0" offset="25"><phase duration="20" state="GGGGG" /><phase duration="3" state="yyyyy" /><phase duration="20" state="rrrrr" /></tlLogic><tlLogic id="10768031790" type="static" programID="0" offset="13"><phase duration="20" state="GG" /><phase duration="3" state="yy" /><phase duration="20" state="rr" /></tlLogic><tlLogic id="10768060578" type="static" programID="0" offset="16"><phase duration="20" state="GG" /><phase duration="3" state="yy" /><phase duration="20" state="rr" /></tlLogic><tlLogic id="10768060579" type="static" programID="0" offset="34"><phase duration="20" state="GGGG" /><phase duration="3" state="yyyy" /><phase duration="20" state="rrrr" /></tlLogic><tlLogic id="10768060580" type="static" programID="0" offset="31"><phase duration="20" state="GGGG" /><phase duration="3" state="yyyy" /><phase duration="20" state="rrrr" /></tlLogic><tlLogic id="10768060581" type="static" programID="0" offset="23"><phase duration="20" state="GGGG" /><phase duration="3" state="yyyy" /><phase duration="20" state="rrrr" /></tlLogic><tlLogic id="10904504210" type="static" programID="0" offset="20"><phase duration="18" state="rrGGGG" /><phase duration="3" state="rryyyy" /><phase duration="2" state="rrrrrr" /><phase duration="19" state="GGrrrr" /><phase duration="3" state="yyrrrr" /></tlLogic><tlLogic id="10930589792" type="static" programID="0" offset="8"><phase duration="20" state="G" /><phase duration="3" state="y" /><phase duration="20" state="r" /></tlLogic><tlLogic id="10930589793" type="static" programID="0" offset="15"><phase duration="20" state="GG" /><phase duration="3" state="yy" /><phase duration="20" state="rr" /></tlLogic><tlLogic id="10930589794" type="static" programID="0" offset="33"><phase duration="20" state="G" /><phase duration="3" state="y" /><phase duration="20" state="r" /></tlLogic><tlLogic id="10930589804" type="static" programID="0" offset="5"><phase duration="20" state="G" /><phase duration="3" state="y" /><phase duration="20" state="r" /></tlLogic><tlLogic id="10930604305" type="static" programID="0" offset="18"><phase duration="20" state="GG" /><phase duration="3" state="yy" /><phase duration="20" state="rr" /></tlLogic><tlLogic id="10930604405" type="static" programID="0" offset="27"><phase duration="20" state="GGG" /><phase duration="3" state="yyy" /><phase duration="20" state="rrr" /></tlLogic><tlLogic id="10930604409" type="static" programID="0" offset="36"><phase duration="20" state="GG" /><phase duration="3" state="yy" /><phase duration="20" state="rr" /></tlLogic><tlLogic id="10930604410" type="static" programID="0" offset="3"><phase duration="20" state="GG" /><phase duration="3" state="yy" /><phase duration="20" state="rr" /></tlLogic><tlLogic id="10930604413" type="static" programID="0" offset="40"><phase duration="20" state="GG" /><phase duration="3" state="yy" /><phase duration="20" state="rr" /></tlLogic><tlLogic id="10930604432" type="static" programID="0" offset="38"><phase duration="20" state="GG" /><phase duration="3" state="yy" /><phase duration="20" state="rr" /></tlLogic><tlLogic id="10930604438" type="static" programID="0" offset="34"><phase duration="20" state="GG" /><phase duration="3" state="yy" /><phase duration="20" state="rr" /></tlLogic><tlLogic id="10930604525" type="static" programID="0" offset="29"><phase duration="20" state="GGG" /><phase duration="3" state="yyy" /><phase duration="20" state="rrr" /></tlLogic><tlLogic id="10930604528" type="static" programID="0" offset="21"><phase duration="20" state="GG" /><phase duration="3" state="yy" /><phase duration="20" state="rr" /></tlLogic><tlLogic id="10930604538" type="static" programID="0" offset="6"><phase duration="20" state="GGG" /><phase duration="3" state="yyy" /><phase duration="20" state="rrr" /></tlLogic><tlLogic id="10930604545" type="static" programID="0" offset="36"><phase duration="20" state="G" /><phase duration="3" state="y" /><phase duration="20" state="r" /></tlLogic><tlLogic id="10930604546" type="static" programID="0" offset="17"><phase duration="20" state="GGGG" /><phase duration="3" state="yyyy" /><phase duration="20" state="rrrr" /></tlLogic><tlLogic id="10930604547" type="static" programID="0" offset="31"><phase duration="20" state="GGG" /><phase duration="3" state="yyy" /><phase duration="20" state="rrr" /></tlLogic><tlLogic id="10930604576" type="static" programID="0" offset="9"><phase duration="20" state="GGGG" /><phase duration="3" state="yyyy" /><phase duration="20" state="rrrr" /></tlLogic><tlLogic id="10930604577" type="static" programID="0" offset="2"><phase duration="20" state="G" /><phase duration="3" state="y" /><phase duration="20" state="r" /></tlLogic><tlLogic id="10930604578" type="static" programID="0" offset="32"><phase duration="20" state="GGG" /><phase duration="3" state="yyy" /><phase duration="20" state="rrr" /></tlLogic><tlLogic id="10930604579" type="static" programID="0" offset="2"><phase duration="20" state="GG" /><phase duration="3" state="yy" /><phase duration="20" state="rr" /></tlLogic><tlLogic id="10930745746" type="static" programID="0" offset="25"><phase duration="20" state="GGGG" /><phase duration="3" state="yyyy" /><phase duration="20" state="rrrr" /></tlLogic><tlLogic id="10940313711" type="static" programID="0" offset="6"><phase duration="20" state="GG" /><phase duration="3" state="yy" /><phase duration="20" state="rr" /></tlLogic><tlLogic id="11005349404" type="static" programID="0" offset="37"><phase duration="20" state="GG" /><phase duration="3" state="yy" /><phase duration="20" state="rr" /></tlLogic><tlLogic id="11005363607" type="static" programID="0" offset="16"><phase duration="20" state="GG" /><phase duration="3" state="yy" /><phase duration="20" state="rr" /></tlLogic><tlLogic id="11005363610" type="static" programID="0" offset="23"><phase duration="20" state="GG" /><phase duration="3" state="yy" /><phase duration="20" state="rr" /></tlLogic><tlLogic id="11005363613" type="static" programID="0" offset="8"><phase duration="20" state="GGGG" /><phase duration="3" state="yyyy" /><phase duration="20" state="rrrr" /></tlLogic><tlLogic id="11005363642" type="static" programID="0" offset="23"><phase duration="20" state="GGGG" /><phase duration="3" state="yyyy" /><phase duration="20" state="rrrr" /></tlLogic><tlLogic id="11005363650" type="static" programID="0" offset="9"><phase duration="20" state="GG" /><phase duration="3" state="yy" /><phase duration="20" state="rr" /></tlLogic><tlLogic id="11005363655" type="static" programID="0" offset="19"><phase duration="20" state="GGGG" /><phase duration="3" state="yyyy" /><phase duration="20" state="rrrr" /></tlLogic><tlLogic id="11005363656" type="static" programID="0" offset="18"><phase duration="20" state="GG" /><phase duration="3" state="yy" /><phase duration="20" state="rr" /></tlLogic><tlLogic id="11005363734" type="static" programID="0" offset="31"><phase duration="20" state="GG" /><phase duration="3" state="yy" /><phase duration="20" state="rr" /></tlLogic><tlLogic id="11005363741" type="static" programID="0" offset="12"><phase duration="20" state="GG" /><phase duration="3" state="yy" /><phase duration="20" state="rr" /></tlLogic><tlLogic id="11005363742" type="static" programID="0" offset="5"><phase duration="20" state="GG" /><phase duration="3" state="yy" /><phase duration="20" state="rr" /></tlLogic><tlLogic id="11005363743" type="static" programID="0" offset="2"><phase duration="20" state="GG" /><phase duration="3" state="yy" /><phase duration="20" state="rr" /></tlLogic><tlLogic id="11005363764" type="static" programID="0" offset="3"><phase duration="20" state="GG" /><phase duration="3" state="yy" /><phase duration="20" state="rr" /></tlLogic><tlLogic id="11005363765" type="static" programID="0" offset="9"><phase duration="20" state="GG" /><phase duration="3" state="yy" /><phase duration="20" state="rr" /></tlLogic><tlLogic id="11005363910" type="static" programID="0" offset="9"><phase duration="20" state="GG" /><phase duration="3" state="yy" /><phase duration="20" state="rr" /></tlLogic><tlLogic id="11005363943" type="static" programID="0" offset="26"><phase duration="20" state="GG" /><phase duration="3" state="yy" /><phase duration="20" state="rr" /></tlLogic><tlLogic id="11005363944" type="static" programID="0" offset="12"><phase duration="20" state="GGGG" /><phase duration="3" state="yyyy" /><phase duration="20" state="rrrr" /></tlLogic><tlLogic id="11005363945" type="static" programID="0" offset="15"><phase duration="20" state="GGGGG" /><phase duration="3" state="yyyyy" /><phase duration="20" state="rrrrr" /></tlLogic><tlLogic id="11005363946" type="static" programID="0" offset="35"><phase duration="20" state="GG" /><phase duration="3" state="yy" /><phase duration="20" state="rr" /></tlLogic><tlLogic id="11062237084" type="static" programID="0" offset="5"><phase duration="20" state="GGG" /><phase duration="3" state="yyy" /><phase duration="20" state="rrr" /></tlLogic><tlLogic id="11062237085" type="static" programID="0" offset="10"><phase duration="20" state="GGG" /><phase duration="3" state="yyy" /><phase duration="20" state="rrr" /></tlLogic><tlLogic id="11062237087" type="static" programID="0" offset="11"><phase duration="20" state="GGGG" /><phase duration="3" state="yyyy" /><phase duration="20" state="rrrr" /></tlLogic><tlLogic id="11062237090" type="static" programID="0" offset="16"><phase duration="20" state="GGG" /><phase duration="3" state="yyy" /><phase duration="20" state="rrr" /></tlLogic><tlLogic id="11062237091" type="static" programID="0" offset="31"><phase duration="20" state="GGG" /><phase duration="3" state="yyy" /><phase duration="20" state="rrr" /></tlLogic><tlLogic id="11062237097" type="static" programID="0" offset="32"><phase duration="20" state="GGGG" /><phase duration="3" state="yyyy" /><phase duration="20" state="rrrr" /></tlLogic><tlLogic id="11107639069" type="static" programID="0" offset="33"><phase duration="20" state="GG" /><phase duration="3" state="yy" /><phase duration="20" state="rr" /></tlLogic><tlLogic id="11107639074" type="static" programID="0" offset="38"><phase duration="20" state="GG" /><phase duration="3" state="yy" /><phase duration="20" state="rr" /></tlLogic><tlLogic id="11107639104" type="static" programID="0" offset="36"><phase duration="20" state="GG" /><phase duration="3" st