<?xml version="1.0" encoding="UTF-8"?>
<additional><tlLogic id="10025011518" type="static" programID="1" offset="21"><phase duration="3" state="yy" /><phase duration="20" state="rr" /><phase duration="22" state="GG" /></tlLogic><tlLogic id="10025011519" type="static" programID="1" offset="48"><phase duration="3" state="yyyy" /><phase duration="19" state="rrrr" /><phase duration="18" state="GGGG" /></tlLogic><tlLogic id="10025011520" type="static" programID="1" offset="47"><phase duration="3" state="yyy" /><phase duration="20" state="rrr" /><phase duration="22" state="GGG" /></tlLogic><tlLogic id="10025011522" type="static" programID="1" offset="31"><phase duration="22" state="GG" /><phase duration="4" state="yy" /><phase duration="20" state="rr" /></tlLogic><tlLogic id="10025011534" type="static" programID="1" offset="24"><phase duration="4" state="yy" /><phase duration="20" state="rr" /><phase duration="18" state="GG" /></tlLogic><tlLogic id="10025011565" type="static" programID="1" offset="37"><phase duration="1" state="y" /><phase duration="19" state="r" /><phase duration="18" state="G" /></tlLogic><tlLogic id="10025011566" type="static" programID="1" offset="60"><phase duration="2" state="yy" /><phase duration="20" state="rr" /><phase duration="18" state="GG" /></tlLogic><tlLogic id="10025011569" type="static" programID="1" offset="23"><phase duration="22" state="GG" /><phase duration="1" state="yy" /><phase duration="22" state="rr" /></tlLogic><tlLogic id="10073295523" type="static" programID="1" offset="17"><phase duration="21" state="rrr" /><phase duration="21" state="GGG" /><phase duration="4" state="yyy" /></tlLogic><tlLogic id="10073295525" type="static" programID="1" offset="13"><phase duration="19" state="GGG" /><phase duration="3" state="yyy" /><phase duration="22" state="rrr" /></tlLogic><tlLogic id="10073295528" type="static" programID="1" offset="38"><phase duration="21" state="rrr" /><phase duration="21" state="GGG" /><phase duration="3" state="yyy" /></tlLogic><tlLogic id="10073295538" type="static" programID="1" offset="29"><phase duration="20" state="GG" /><phase duration="3" state="yy" /><phase duration="19" state="rr" /></tlLogic><tlLogic id="10073295542" type="static" programID="1" offset="4"><phase duration="1" state="yy" /><phase duration="19" state="rr" /><phase duration="22" state="GG" /></tlLogic><tlLogic id="10073295582" type="static" programID="1" offset="1"><phase duration="20" state="GG" /><phase duration="2" state="yy" /><phase duration="18" state="rr" /></tlLogic><tlLogic id="10073295585" type="static" programID="1" offset="11"><phase duration="5" state="yy" /><phase duration="19" state="rr" /><phase duration="18" state="GG" /></tlLogic><tlLogic id="10073295591" type="static" programID="1" offset="3"><phase duration="21" state="GG" /><phase duration="3" state="yy" /><phase duration="19" state="rr" /></tlLogic><tlLogic id="10125437779" type="static" programID="1" offset="4"><phase duration="21" state="rrrGGGGG" /><phase duration="4" state="rrrGyyyy" /><phase duration="2" state="rrrrrrrr" /><phase duration="19" state="GGgGrrrr" /><phase duration="3" state="yyyGrrrr" /></tlLogic><tlLogic id="10139851463" type="static" programID="1" offset="44"><phase duration="19" state="GrrrrrrGGGg" /><phase duration="3" state="Grrrrrryyyy" /><phase duration="2" state="rrrrrrrrrrr" /><phase duration="20" state="GGGGGGgrrrr" /><phase duration="5" state="Gyyyyyyrrrr" /></tlLogic><tlLogic id="10172657881" type="static" programID="1" offset="55"><phase duration="22" state="GG" /><phase duration="1" state="yy" /><phase duration="22" state="rr" /></tlLogic><tlLogic id="10172695966" type="static" programID="1" offset="18"><phase duration="2" state="yy" /><phase duration="18" state="rr" /><phase duration="18" state="GG" /></tlLogic><tlLogic id="10172695970" type="static" programID="1" offset="47"><phase duration="20" state="rr" /><phase duration="20" state="GG" /><phase duration="2" state="yy" /></tlLogic><tlLogic id="10172695973" type="static" programID="1" offset="20"><phase duration="18" state="rrrrr" /><phase duration="19" state="GGGGG" /><phase duration="2" state="yyyyy" /></tlLogic><tlLogic id="10172696002" type="static" programID="1" offset="33"><phase duration="4" state="yyyy" /><phase duration="21" state="rrrr" /><phase duration="21" state="GGGG" /></tlLogic><tlLogic id="10172696006" type="static" programID="1" offset="5"><phase duration="20" state="rr" /><phase duration="21" state="GG" /><phase duration="4" state="yy" /></tlLogic><tlLogic id="10172696051" type="static" programID="1" offset="15"><phase duration="19" state="GG" /><phase duration="1" state="yy" /><phase duration="19" state="rr" /></tlLogic><tlLogic id="10172696052" type="static" programID="1" offset="9"><phase duration="1" state="yyyyy" /><phase duration="21" state="rrrrr" /><phase duration="21" state="GGGGG" /></tlLogic><tlLogic id="10172696053" type="static" programID="1" offset="24"><phase duration="19" state="rrrr" /><phase duration="18" state="GGGG" /><phase duration="5" state="yyyy" /></tlLogic><tlLogic id="10172696054" type="static" programID="1" offset="13"><phase duration="4" state="yy" /><phase duration="19" state="rr" /><phase duration="22" state="GG" /></tlLogic><tlLogic id="10199019532" type="static" programID="1" offset="42"><phase duration="1" state="Grrrrrryyyy" /><phase duration="2" state="rrrrrrrrrrr" /><phase duration="17" state="GGGGGGgrrrr" /><phase duration="3" state="Gyyyyyyrrrr" /><phase duration="2" state="rrrrrrrrrrr" /><phase duration="19" state="GrrrrrrGGGg" /></tlLogic><tlLogic id="10199019536" type="static" programID="1" offset="43"><phase duration="4" state="Grrrrrryyyy" /><phase duration="2" state="rrrrrrrrrrr" /><phase duration="17" state="GGGGGGgrrrr" /><phase duration="2" state="Gyyyyyyrrrr" /><phase duration="2" state="rrrrrrrrrrr" /><phase duration="17" state="GrrrrrrGGGg" /></tlLogic><tlLogic id="10199019541" type="static" programID="1" offset="27"><phase duration="4" state="Grrrrrryyyy" /><phase duration="2" state="rrrrrrrrrrr" /><phase duration="19" state="GGGGGGgrrrr" /><phase duration="3" state="Gyyyyyyrrrr" /><phase duration="2" state="rrrrrrrrrrr" /><phase duration="18" state="GrrrrrrGGGg" /></tlLogic><tlLogic id="10227827561" type="static" programID="1" offset="29"><phase duration="1" state="Grrrrrryyyy" /><phase duration="2" state="rrrrrrrrrrr" /><phase duration="20" state="GGGGGGgrrrr" /><phase duration="3" state="Gyyyyyyrrrr" /><phase duration="2" state="rrrrrrrrrrr" /><phase duration="20" state="GrrrrrrGGGg" /></tlLogic><tlLogic id="10233909441" type="static" programID="1" offset="24"><phase duration="19" state="GGG" /><phase duration="3" state="yyy" /><phase duration="20" state="rrr" /></tlLogic><tlLogic id="10233909449" type="static" programID="1" offset="29"><phase duration="5" state="yyyy" /><phase duration="21" state="rrrr" /><phase duration="20" state="GGGG" /></tlLogic><tlLogic id="10234099497" type="static" programID="1" offset="26"><phase duration="18" state="rr" /><phase duration="20" state="GG" /><phase duration="5" state="yy" /></tlLogic><tlLogic id="10234099515" type="static" programID="1" offset="55"><phase duration="4" state="yy" /><phase duration="21" state="rr" /><phase duration="20" state="GG" /></tlLogic><tlLogic id="10234213881" type="static" programID="1" offset="38"><phase duration="19" state="GGG" /><phase duration="1" state="yyy" /><phase duration="21" state="rrr" /></tlLogic><tlLogic id="10234213884" type="static" programID="1" offset="33"><phase duration="1" state="yy" /><phase duration="21" state="rr" /><phase duration="22" state="GG" /></tlLogic><tlLogic id="10234213908" type="static" programID="1" offset="41"><phase duration="4" state="yy" /><phase duration="20" state="rr" /><phase duration="21" state="GG" /></tlLogic><tlLogic id="10234213912" type="static" programID="1" offset="35"><phase duration="19" state="rrrr" /><phase duration="21" state="GGGG" /><phase duration="5" state="yyyy" /></tlLogic><tlLogic id="10234213914" type="static" programID="1" offset="11"><phase duration="22" state="GGGG" /><phase duration="1" state="yyyy" /><phase duration="20" state="rrrr" /></tlLogic><tlLogic id="10234213915" type="static" programID="1" offset="41"><phase duration="22" state="rr" /><phase duration="22" state="GG" /><phase duration="4" state="yy" /></tlLogic><tlLogic id="10234227718" type="static" programID="1" offset="47"><phase duration="18" state="rr" /><phase duration="18" state="GG" /><phase duration="1" state="yy" /></tlLogic><tlLogic id="10234227739" type="static" programID="1" offset="0"><phase duration="18" state="G" /><phase duration="4" state="y" /><phase duration="22" state="r" /></tlLogic><tlLogic id="10234227740" type="static" programID="1" offset="25"><phase duration="20" state="G" /><phase duration="3" state="y" /><phase duration="18" state="r" /></tlLogic><tlLogic id="10234388652" type="static" programID="1" offset="57"><phase duration="5" state="yyy" /><phase duration="22" state="rrr" /><phase duration="21" state="GGG" /></tlLogic><tlLogic id="10234388654" type="static" programID="1" offset="28"><phase duration="20" state="rrrr" /><phase duration="19" state="GGGG" /><phase duration="1" state="yyyy" /></tlLogic><tlLogic id="10234388685" type="static" programID="1" offset="57"><phase duration="19" state="rrr" /><phase duration="20" state="GGG" /><phase duration="4" state="yyy" /></tlLogic><tlLogic id="10234456010" type="static" programID="1" offset="16"><phase duration="20" state="GG" /><phase duration="1" state="yy" /><phase duration="20" state="rr" /></tlLogic><tlLogic id="10234456012" type="static" programID="1" offset="6"><phase duration="2" state="yy" /><phase duration="20" state="rr" /><phase duration="21" state="GG" /></tlLogic><tlLogic id="10234456014" type="static" programID="1" offset="4"><phase duration="19" state="rr" /><phase duration="20" state="GG" /><phase duration="1" state="yy" /></tlLogic><tlLogic id="10234456015" type="static" programID="1" offset="51"><phase duration="22" state="rr" /><phase duration="19" state="GG" /><phase duration="5" state="yy" /></tlLogic><tlLogic id="10234464375" type="static" programID="1" offset="12"><phase duration="22" state="GG" /><phase duration="1" state="yy" /><phase duration="20" state="rr" /></tlLogic><tlLogic id="10234464404" type="static" programID="1" offset="17"><phase duration="5" state="yy" /><phase duration="22" state="rr" /><phase duration="22" state="GG" /></tlLogic><tlLogic id="10234464416" type="static" programID="1" offset="24"><phase duration="2" state="yy" /><phase duration="20" state="rr" /><phase duration="20" state="GG" /></tlLogic><tlLogic id="10234478018" type="static" programID="1" offset="46"><phase duration="21" state="rr" /><phase duration="21" state="GG" /><phase duration="1" state="yy" /></tlLogic><tlLogic id="10234478022" type="static" programID="1" offset="20"><phase duration="1" state="yy" /><phase duration="20" state="rr" /><phase duration="19" state="GG" /></tlLogic><tlLogic id="10234478023" type="static" programID="1" offset="6"><phase duration="22" state="rr" /><phase duration="19" state="GG" /><phase duration="3" state="yy" /></tlLogic><tlLogic id="10234494939" type="static" programID="1" offset="32"><phase duration="19" state="rr" /><phase duration="19" state="GG" /><phase duration="5" state="yy" /></tlLogic><tlLogic id="10234494940" type="static" programID="1" offset="52"><phase duration="19" state="rr" /><phase duration="21" state="GG" /><phase duration="3" state="yy" /></tlLogic><tlLogic id="10234494941" type="static" programID="1" offset="32"><phase duration="2" state="yy" /><phase duration="21" state="rr" /><phase duration="22" state="GG" /></tlLogic><tlLogic id="10234494942" type="static" programID="1" offset="32"><phase duration="5" state="yy" /><phase duration="22" state="rr" /><phase duration="18" state="GG" /></tlLogic><tlLogic id="10234494999" type="static" programID="1" offset="4"><phase duration="19" state="rr" /><phase duration="18" state="GG" /><phase duration="3" state="yy" /></tlLogic><tlLogic id="10234495000" type="static" programID="1" offset="51"><phase duration="5" state="yy" /><phase duration="21" state="rr" /><phase duration="18" state="GG" /></tlLogic><tlLogic id="10234495001" type="static" programID="1" offset="33"><phase duration="19" state="GG" /><phase duration="3" state="yy" /><phase duration="18" state="rr" /></tlLogic><tlLogic id="10234495002" type="static" programID="1" offset="1"><phase duration="19" state="rr" /><phase duration="21" state="GG" /><phase duration="2" state="yy" /></tlLogic><tlLogic id="10234519169" type="static" programID="1" offset="57"><phase duration="20" state="rr" /><phase duration="21" state="GG" /><phase duration="3" state="yy" /></tlLogic><tlLogic id="10234519170" type="static" programID="1" offset="17"><phase duration="22" state="GG" /><phase duration="1" state="yy" /><phase duration="22" state="rr" /></tlLogic><tlLogic id="10234519171" type="static" programID="1" offset="49"><phase duration="22" state="GG" /><phase duration="2" state="yy" /><phase duration="19" state="rr" /></tlLogic><tlLogic id="10255389076" type="static" programID="1" offset="45"><phase duration="19" state="rrrGGGGG" /><phase duration="1" state="rrrGyyyy" /><phase duration="2" state="rrrrrrrr" /><phase duration="20" state="GGgGrrrr" /><phase duration="5" state="yyyGrrrr" /></tlLogic><tlLogic id="10293213598" type="static" programID="1" offset="29"><phase duration="5" state="yyyyrrrrGyy" /><phase duration="2" state="rrrrrrrrrrr" /><phase duration="21" state="rrrrGGGgGrr" /><phase duration="5" state="rrrryyyyGrr" /><phase duration="2" state="rrrrrrrrrrr" /><phase duration="19" state="GGGgrrrrGGG" /></tlLogic><tlLogic id="10293213602" type="static" programID="1" offset="24"><phase duration="19" state="rrrrGGGgGrr" /><phase duration="5" state="rrrryyyyGrr" /><phase duration="2" state="rrrrrrrrrrr" /><phase duration="20" state="GGGgrrrrGGG" /><phase duration="2" state="yyyyrrrrGyy" /></tlLogic><tlLogic id="10536933721" type="static" programID="1" offset="43"><phase duration="1" state="yyyyy" /><phase duration="18" state="rrrrr" /><phase duration="22" state="GGGGG" /></tlLogic><tlLogic id="10536933723" type="static" programID="1" offset="48"><phase duration="1" state="yy" /><phase duration="20" state="rr" /><phase duration="18" state="GG" /></tlLogic><tlLogic id="10536933724" type="static" programID="1" offset="4"><phase duration="4" state="yyyyy" /><phase duration="19" state="rrrrr" /><phase duration="22" state="GGGGG" /></tlLogic><tlLogic id="10536933726" type="static" programID="1" offset="29"><phase duration="21" state="GG" /><phase duration="1" state="yy" /><phase duration="21" state="rr" /></tlLogic><tlLogic id="10536933736" type="static" programID="1" offset="49"><phase duration="21" state="rrrr" /><phase duration="19" state="GGGG" /><phase duration="1" state="yyyy" /></tlLogic><tlLogic id="10536933741" type="static" programID="1" offset="23"><phase duration="21" state="rrrr" /><phase duration="20" state="GGGG" /><phase duration="4" state="yyyy" /></tlLogic><tlLogic id="10536933744" type="static" programID="1" offset="49"><phase duration="19" state="GGGG" /><phase duration="5" state="yyyy" /><phase duration="19" state="rrrr" /></tlLogic><tlLogic id="10536933747" type="static" programID="1" offset="51"><phase duration="2" state="yyyyy" /><phase duration="22" state="rrrrr" /><phase duration="18" state="GGGGG" /></tlLogic><tlLogic id="10536933750" type="static" programID="1" offset="41"><phase duration="20" state="rrrrr" /><phase duration="21" state="GGGGG" /><phase duration="2" state="yyyyy" /></tlLogic><tlLogic id="10728674106" type="static" programID="1" offset="33"><phase duration="18" state="GGGGG" /><phase duration="3" state="yyyyy" /><phase duration="20" state="rrrrr" /></tlLogic><tlLogic id="10728674543" type="static" programID="1" offset="48"><phase duration="3" state="yyyy" /><phase duration="21" state="rrrr" /><phase duration="21" state="GGGG" /></tlLogic><tlLogic id="10728674545" type="static" programID="1" offset="38"><phase duration="20" state="rr" /><phase duration="21" state="GG" /><phase duration="5" state="yy" /></tlLogic><tlLogic id="10728674547" type="static" programID="1" offset="55"><phase duration="20" state="GGGG" /><phase duration="5" state="yyyy" /><phase duration="18" state="rrrr" /></tlLogic><tlLogic id="10755248962" type="static" programID="1" offset="10"><phase duration="20" state="GG" /><phase duration="2" state="yy" /><phase duration="21" state="rr" /></tlLogic><tlLogic id="10755248963" type="static" programID="1" offset="38"><phase duration="20" state="rr" /><phase duration="18" state="GG" /><phase duration="4" state="yy" /></tlLogic><tlLogic id="10755248964" type="static" programID="1" offset="37"><phase duration="5" state="yyyy" /><phase duration="19" state="rrrr" /><phase duration="19" state="GGGG" /></tlLogic><tlLogic id="10755248965" type="static" programID="1" offset="25"><phase duration="20" state="rrr" /><phase duration="21" state="GGG" /><phase duration="1" state="yyy" /></tlLogic><tlLogic id="10767868495" type="static" programID="1" offset="43"><phase duration="21" state="GG" /><phase duration="1" state="yy" /><phase duration="21" state="rr" /></tlLogic><tlLogic id="10767868496" type="static" programID="1" offset="43"><phase duration="20" state="GG" /><phase duration="2" state="yy" /><phase duration="19" state="rr" /></tlLogic><tlLogic id="10767891625" type="static" programID="1" offset="22"><phase duration="20" state="rr" /><phase duration="20" state="GG" /><phase duration="2" state="yy" /></tlLogic><tlLogic id="10767891626" type="static" programID="1" offset="52"><phase duration="4" state="yyyy" /><phase duration="18" state="rrrr" /><phase duration="19" state="GGGG" /></tlLogic><tlLogic id="10767891627" type="static" programID="1" offset="23"><phase duration="18" state="GG" /><phase duration="5" state="yy" /><phase duration="21" state="rr" /></tlLogic><tlLogic id="10767891628" type="static" programID="1" offset="43"><phase duration="2" state="yyyy" /><phase duration="20" state="rrrr" /><phase duration="19" state="GGGG" /></tlLogic><tlLogic id="10767900308" type="static" programID="1" offset="3"><phase duration="21" state="GGGGG" /><phase duration="3" state="yyyyy" /><phase duration="21" state="rrrrr" /></tlLogic><tlLogic id="10767900309" type="static" programID="1" offset="50"><phase duration="19" state="rrrrr" /><phase duration="22" state="GGGGG" /><phase duration="2" state="yyyyy" /></tlLogic><tlLogic id="10767900310" type="static" programID="1" offset="30"><phase duration="2" state="yyyyy" /><phase duration="18" state="rrrrr" /><phase duration="18" state="GGGGG" /></tlLogic><tlLogic id="10767900311" type="static" programID="1" offset="14"><phase duration="18" state="rrrrr" /><phase duration="19" state="GGGGG" /><phase duration="1" state="yyyyy" /></tlLogic><tlLogic id="10767906972" type="static" programID="1" offset="29"><phase duration="22" state="rrrrr" /><phase duration="19" state="GGGGG" /><phase duration="2" state="yyyyy" /></tlLogic><tlLogic id="10767906973" type="static" programID="1" offset="34"><phase duration="22" state="rr" /><phase duration="18" state="GG" /><phase duration="4" state="yy" /></tlLogic><tlLogic id="10767906974" type="static" programID="1" offset="1"><phase duration="19" state="rr" /><phase duration="19" state="GG" /><phase duration="3" state="yy" /></tlLogic><tlLogic id="10768031787" type="static" programID="1" offset="12"><phase duration="18" state="rrrr" /><phase duration="18" state="GGGG" /><phase duration="5" state="yyyy" /></tlLogic><tlLogic id="10768031788" type="static" programID="1" offset="53"><phase duration="18" state="rr" /><phase duration="19" state="GG" /><phase duration="4" state="yy" /></tlLogic><tlLogic id="10768031789" type="static" programID="1" offset="44"><phase duration="19" state="GGGGG" /><phase duration="4" state="yyyyy" /><phase duration="20" state="rrrrr" /></tlLogic><tlLogic id="10768031790" type="static" programID="1" offset="52"><phase duration="19" state="rr" /><phase duration="20" state="GG" /><phase duration="4" state="yy" /></tlLogic><tlLogic id="10768060578" type="static" programID="1" offset="9"><phase duration="4" state="yy" /><phase duration="20" state="rr" /><phase duration="20" state="GG" /></tlLogic><tlLogic id="10768060579" type="static" programID="1" offset="49"><phase duration="21" state="rrrr" /><phase duration="18" state="GGGG" /><phase duration="4" state="yyyy" /></tlLogic><tlLogic id="10768060580" type="static" programID="1" offset="26"><phase duration="18" state="GGGG" /><phase duration="5" state="yyyy" /><phase duration="21" state="rrrr" /></tlLogic><tlLogic id="10768060581" type="static" programID="1" offset="44"><phase duration="5" state="yyyy" /><phase duration="19" state="rrrr" /><phase duration="22" state="GGGG" /></tlLogic><tlLogic id="10904504210" type="static" programID="1" offset="36"><phase duration="5" state="yyrrrr" /><phase duration="2" state="rrrrrr" /><phase duration="16" state="rrGGGG" /><phase duration="2" state="rryyyy" /><phase duration="2" state="rrrrrr" /><phase duration="18" state="GGrrrr" /></tlLogic><tlLogic id="10930589792" type="static" programID="1" offset="50"><phase duration="5" state="y" /><phase duration="20" state="r" /><phase duration="20" state="G" /></tlLogic><tlLogic id="10930589793" type="static" programID="1" offset="29"><phase duration="5" state="yy" /><phase duration="20" state="rr" /><phase duration="21" state="GG" /></tlLogic><tlLogic id="10930589794" type="static" programID="1" offset="42"><phase duration="21" state="r" /><phase duration="20" state="G" /><phase duration="2" state="y" /></tlLogic><tlLogic id="10930589804" type="static" programID="1" offset="43"><phase duration="19" state="r" /><phase duration="20" state="G" /><phase duration="3" state="y" /></tlLogic><tlLogic id="10930604305" type="static" programID="1" offset="31"><phase duration="3" state="yy" /><phase duration="20" state="rr" /><phase duration="20" state="GG" /></tlLogic><tlLogic id="10930604405" type="static" programID="1" offset="45"><phase duration="5" state="yyy" /><phase duration="20" state="rrr" /><phase duration="19" state="GGG" /></tlLogic><tlLogic id="10930604409" type="static" programID="1" offset="5"><phase duration="21" state="rr" /><phase duration="22" state="GG" /><phase duration="5" state="yy" /></tlLogic><tlLogic id="10930604410" type="static" programID="1" offset="54"><phase duration="18" state="GG" /><phase duration="3" state="yy" /><phase duration="21" state="rr" /></tlLogic><tlLogic id="10930604413" type="static" programID="1" offset="19"><phase duration="18" state="GG" /><phase duration="1" state="yy" /><phase duration="19" state="rr" /></tlLogic><tlLogic id="10930604432" type="static" programID="1" offset="1"><phase duration="1" state="yy" /><phase duration="21" state="rr" /><phase duration="22" state="GG" /></tlLogic><tlLogic id="10930604438" type="static" programID="1" offset="16"><phase duration="21" state="GG" /><phase duration="5" state="yy" /><phase duration="22" state="rr" /></tlLogic><tlLogic id="10930604525" type="static" programID="1" offset="15"><phase duration="1" state="yyy" /><phase duration="21" state="rrr" /><phase duration="18" state="GGG" /></tlLogic><tlLogic id="10930604528" type="static" programID="1" offset="8"><phase duration="19" state="rr" /><phase duration="21" state="GG" /><phase duration="2" state="yy" /></tlLogic><tlLogic id="10930604538" type="static" programID="1" offset="23"><phase duration="18" state="GGG" /><phase duration="5" state="yyy" /><phase duration="21" state="rrr" /></tlLogic><tlLogic id="10930604545" type="static" programID="1" offset="23"><phase duration="21" state="r" /><phase duration="22" state="G" /><phase duration="2" state="y" /></tlLogic><tlLogic id="10930604546" type="static" programID="1" offset="19"><phase duration="20" state="rrrr" /><phase duration="22" state="GGGG" /><phase duration="1" state="yyyy" /></tlLogic><tlLogic id="10930604547" type="static" programID="1" offset="14"><phase duration="22" state="rrr" /><phase duration="21" state="GGG" /><phase duration="1" state="yyy" /></tlLogic><tlLogic id="10930604576" type="static" programID="1" offset="53"><phase duration="1" state="yyyy" /><phase duration="18" state="rrrr" /><phase duration="20" state="GGGG" /></tlLogic><tlLogic id="10930604577" type="static" programID="1" offset="17"><phase duration="5" state="y" /><phase duration="18" state="r" /><phase duration="22" state="G" /></tlLogic><tlLogic id="10930604578" type="static" programID="1" offset="56"><phase duration="21" state="rrr" /><phase duration="21" state="GGG" /><phase duration="2" state="yyy" /></tlLogic><tlLogic id="10930604579" type="static" programID="1" offset="10"><phase duration="4" state="yy" /><phase duration="22" state="rr" /><phase duration="18" state="GG" /></tlLogic><tlLogic id="10930745746" type="static" programID="1" offset="52"><phase duration="21" state="rrrr" /><phase duration="20" state="GGGG" /><phase duration="2" state="yyyy" /></tlLogic><tlLogic id="10940313711" type="static" programID="1" offset="22"><phase duration="18" state="rr" /><phase duration="18" state="GG" /><phase duration="1" state="yy" /></tlLogic><tlLogic id="11005349404" type="static" programID="1" offset="55"><phase duration="20" state="rr" /><phase duration="21" state="GG" /><phase duration="2" state="yy" /></tlLogic><tlLogic id="11005363607" type="static" programID="1" offset="50"><phase duration="1" state="yy" /><phase duration="22" state="rr" /><phase duration="18" state="GG" /></tlLogic><tlLogic id="11005363610" type="static" programID="1" offset="43"><phase duration="22" state="rr" /><phase duration="21" state="GG" /><phase duration="2" state="yy" /></tlLogic><tlLogic id="11005363613" type="static" programID="1" offset="53"><phase duration="20" state="GGGG" /><phase duration="5" state="yyyy" /><phase duration="18" state="rrrr" /></tlLogic><tlLogic id="11005363642" type="static" programID="1" offset="13"><phase duration="18" state="rrrr" /><phase duration="21" state="GGGG" /><phase duration="3" state="yyyy" /></tlLogic><tlLogic id="11005363650" type="static" programID="1" offset="52"><phase duration="20" state="rr" /><phase duration="19" state="GG" /><phase duration="2" state="yy" /></tlLogic><tlLogic id="11005363655" type="static" programID="1" offset="6"><phase duration="20" state="GGGG" /><phase duration="5" state="yyyy" /><phase duration="19" state="rrrr" /></tlLogic><tlLogic id="11005363656" type="static" programID="1" offset="51"><phase duration="19" state="GG" /><phase duration="4" state="yy" /><phase duration="20" state="rr" /></tlLogic><tlLogic id="11005363734" type="static" programID="1" offset="32"><phase duration="3" state="yy" /><phase duration="20" state="rr" /><phase duration="18" state="GG" /></tlLogic><tlLogic id="11005363741" type="static" programID="1" offset="13"><phase duration="3" state="yy" /><phase duration="19" state="rr" /><phase duration="22" state="GG" /></tlLogic><tlLogic id="11005363742" type="static" programID="1" offset="31"><phase duration="19" state="rr" /><phase duration="21" state="GG" /><phase duration="4" state="yy" /></tlLogic><tlLogic id="11005363743" type="static" programID="1" offset="10"><phase duration="19" state="rr" /><phase duration="20" state="GG" /><phase duration="3" state="yy" /></tlLogic><tlLogic id="11005363764" type="static" programID="1" offset="16"><phase duration="19" state="GG" /><phase duration="3" state="yy" /><phase duration="21" state="rr" /></tlLogic><tlLogic id="11005363765" type="static" programID="1" offset="16"><phase duration="4" state="yy" /><phase duration="20" state="rr" /><phase duration="21" state="GG" /></tlLogic><tlLogic id="11005363910" type="static" programID="1" offset="7"><phase duration="18" state="rr" /><phase duration="18" state="GG" /><phase duration="1" state="yy" /></tlLogic><tlLogic id="11005363943" type="static" programID="1" offset="37"><phase duration="22" state="GG" /><phase duration="5" state="yy" /><phase duration="19" state="rr" /></tlLogic><tlLogic id="11005363944" type="static" programID="1" offset="9"><phase duration="20" state="rrrr" /><phase duration="22" state="GGGG" /><phase duration="4" state="yyyy" /></tlLogic><tlLogic id="11005363945" type="static" programID="1" offset="16"><phase duration="5" state="yyyyy" /><phase duration="22" state="rrrrr" /><phase duration="19" state="GGGGG" /></tlLogic><tlLogic id="11005363946" type="static" programID="1" offset="49"><phase duration="2" state="yy" /><phase duration="20" state="rr" /><phase duration="22" state="GG" /></tlLogic><tlLogic id="11062237084" type="static" programID="1" offset="3"><phase duration="3" state="yyy" /><phase duration="18" state="rrr" /><phase duration="22" state="GGG" /></tlLogic><tlLogic id="11062237085" type="static" programID="1" offset="9"><phase duration="22" state="GGG" /><phase duration="1" state="yyy" /><phase duration="18" state="rrr" /></tlLogic><tlLogic id="11062237087" type="static" programID="1" offset="51"><phase duration="19" state="GGGG" /><phase duration="4" state="yyyy" /><phase duration="18" state="rrrr" /></tlLogic><tlLogic id="11062237090" type="static" programID="1" offset="29"><phase duration="21" state="rrr" /><phase duration="20" state="GGG" /><phase duration="1" state="yyy" /></tlLogic><tlLogic id="11062237091" type="static" programID="1" offset="31"><phase duration="18" state="rrr" /><phase duration="19" state="GGG" /><phase duration="2" state="yyy" /></tlLogic><tlLogic id="11062237097" type="static" programID="1" offset="53"><phase duration="19" state="GGGG" /><phase duration="3" state="yyyy" /><phase duration="21" state="rrrr" /></tlLogic><tlLogic id="11107639069" type="static" programID="1" offset="44"><phase duration="19" state="rr" /><phase duration="20" state="GG" /><phase duration="1" state="yy" /></tlLogic><tlLogic id="11107639074" t