<?xml version="1.0" encoding="UTF-8"?>
<additional><tlLogic id="10025011518" type="static" programID="1" offset="165"><phase duration="30" state="Gr" /><phase duration="3" state="yr" /><phase duration="2" state="rr" /><phase duration="30" state="rG" /><phase duration="3" state="ry" /><phase duration="2" state="rr" /></tlLogic><tlLogic id="10025011519" type="static" programID="1" offset="265"><phase duration="30" state="GGrr" /><phase duration="3" state="yyrr" /><phase duration="2" state="rrrr" /><phase duration="30" state="rrGG" /><phase duration="3" state="rryy" /><phase duration="2" state="rrrr" /></tlLogic><tlLogic id="10025011520" type="static" programID="1" offset="126"><phase duration="30" state="Grr" /><phase duration="3" state="yrr" /><phase duration="2" state="rrr" /><phase duration="30" state="rGr" /><phase duration="3" state="ryr" /><phase duration="2" state="rrr" /><phase duration="30" state="rrG" /><phase duration="3" state="rry" /><phase duration="2" state="rrr" /></tlLogic><tlLogic id="10025011522" type="static" programID="1" offset="103"><phase duration="30" state="Gr" /><phase duration="3" state="yr" /><phase duration="2" state="rr" /><phase duration="30" state="rG" /><phase duration="3" state="ry" /><phase duration="2" state="rr" /></tlLogic><tlLogic id="10025011534" type="static" programID="1" offset="183"><phase duration="30" state="Gr" /><phase duration="3" state="yr" /><phase duration="2" state="rr" /><phase duration="30" state="rG" /><phase duration="3" state="ry" /><phase duration="2" state="rr" /></tlLogic><tlLogic id="10025011565" type="static" programID="1" offset="61"><phase duration="30" state="G" /><phase duration="3" state="y" /><phase duration="2" state="r" /><phase duration="30" state="r" /><phase duration="3" state="r" /><phase duration="2" state="r" /><phase duration="30" state="r" /><phase duration="3" state="r" /><phase duration="2" state="r" /><phase duration="30" state="r" /><phase duration="3" state="r" /><phase duration="2" state="r" /></tlLogic><tlLogic id="10025011566" type="static" programID="1" offset="200"><phase duration="30" state="Gr" /><phase duration="3" state="yr" /><phase duration="2" state="rr" /><phase duration="30" state="rG" /><phase duration="3" state="ry" /><phase duration="2" state="rr" /></tlLogic><tlLogic id="10025011569" type="static" programID="1" offset="56"><phase duration="30" state="Gr" /><phase duration="3" state="yr" /><phase duration="2" state="rr" /><phase duration="30" state="rG" /><phase duration="3" state="ry" /><phase duration="2" state="rr" /></tlLogic><tlLogic id="10073295523" type="static" programID="1" offset="288"><phase duration="30" state="Grr" /><phase duration="3" state="yrr" /><phase duration="2" state="rrr" /><phase duration="30" state="rGr" /><phase duration="3" state="ryr" /><phase duration="2" state="rrr" /><phase duration="30" state="rrG" /><phase duration="3" state="rry" /><phase duration="2" state="rrr" /></tlLogic><tlLogic id="10073295525" type="static" programID="1" offset="260"><phase duration="30" state="Grr" /><phase duration="3" state="yrr" /><phase duration="2" state="rrr" /><phase duration="30" state="rGr" /><phase duration="3" state="ryr" /><phase duration="2" state="rrr" /><phase duration="30" state="rrG" /><phase duration="3" state="rry" /><phase duration="2" state="rrr" /></tlLogic><tlLogic id="10073295528" type="static" programID="1" offset="156"><phase duration="30" state="Grr" /><phase duration="3" state="yrr" /><phase duration="2" state="rrr" /><phase duration="30" state="rGr" /><phase duration="3" state="ryr" /><phase duration="2" state="rrr" /><phase duration="30" state="rrG" /><phase duration="3" state="rry" /><phase duration="2" state="rrr" /></tlLogic><tlLogic id="10073295538" type="static" programID="1" offset="119"><phase duration="30" state="Gr" /><phase duration="3" state="yr" /><phase duration="2" state="rr" /><phase duration="30" state="rG" /><phase duration="3" state="ry" /><phase duration="2" state="rr" /></tlLogic><tlLogic id="10073295542" type="static" programID="1" offset="104"><phase duration="30" state="Gr" /><phase duration="3" state="yr" /><phase duration="2" state="rr" /><phase duration="30" state="rG" /><phase duration="3" state="ry" /><phase duration="2" state="rr" /></tlLogic><tlLogic id="10073295582" type="static" programID="1" offset="157"><phase duration="30" state="Gr" /><phase duration="3" state="yr" /><phase duration="2" state="rr" /><phase duration="30" state="rG" /><phase duration="3" state="ry" /><phase duration="2" state="rr" /></tlLogic><tlLogic id="10073295585" type="static" programID="1" offset="137"><phase duration="30" state="Gr" /><phase duration="3" state="yr" /><phase duration="2" state="rr" /><phase duration="30" state="rG" /><phase duration="3" state="ry" /><phase duration="2" state="rr" /></tlLogic><tlLogic id="10073295591" type="static" programID="1" offset="13"><phase duration="30" state="Gr" /><phase duration="3" state="yr" /><phase duration="2" state="rr" /><phase duration="30" state="rG" /><phase duration="3" state="ry" /><phase duration="2" state="rr" /></tlLogic><tlLogic id="10125437779" type="static" programID="1" offset="176"><phase duration="30" state="GGrrrrrr" /><phase duration="3" state="yyrrrrrr" /><phase duration="2" state="rrrrrrrr" /><phase duration="30" state="rrGGrrrr" /><phase duration="3" state="rryyrrrr" /><phase duration="2" state="rrrrrrrr" /><phase duration="30" state="rrrrGGrr" /><phase duration="3" state="rrrryyrr" /><phase duration="2" state="rrrrrrrr" /><phase duration="30" state="rrrrrrGG" /><phase duration="3" state="rrrrrryy" /><phase duration="2" state="rrrrrrrr" /></tlLogic><tlLogic id="10139851463" type="static" programID="1" offset="40"><phase duration="30" state="GGrrrrrrrrr" /><phase duration="3" state="yyrrrrrrrrr" /><phase duration="2" state="rrrrrrrrrrr" /><phase duration="30" state="rrGGrrrrrrr" /><phase duration="3" state="rryyrrrrrrr" /><phase duration="2" state="rrrrrrrrrrr" /><phase duration="30" state="rrrrGGrrrrr" /><phase duration="3" state="rrrryyrrrrr" /><phase duration="2" state="rrrrrrrrrrr" /><phase duration="30" state="rrrrrrGGGGG" /><phase duration="3" state="rrrrrryyyyy" /><phase duration="2" state="rrrrrrrrrrr" /></tlLogic><tlLogic id="10172657881" type="static" programID="1" offset="227"><phase duration="30" state="Gr" /><phase duration="3" state="yr" /><phase duration="2" state="rr" /><phase duration="30" state="rG" /><phase duration="3" state="ry" /><phase duration="2" state="rr" /></tlLogic><tlLogic id="10172695966" type="static" programID="1" offset="213"><phase duration="30" state="Gr" /><phase duration="3" state="yr" /><phase duration="2" state="rr" /><phase duration="30" state="rG" /><phase duration="3" state="ry" /><phase duration="2" state="rr" /></tlLogic><tlLogic id="10172695970" type="static" programID="1" offset="137"><phase duration="30" state="Gr" /><phase duration="3" state="yr" /><phase duration="2" state="rr" /><phase duration="30" state="rG" /><phase duration="3" state="ry" /><phase duration="2" state="rr" /></tlLogic><tlLogic id="10172695973" type="static" programID="1" offset="100"><phase duration="30" state="Grrrr" /><phase duration="3" state="yrrrr" /><phase duration="2" state="rrrrr" /><phase duration="30" state="rGrrr" /><phase duration="3" state="ryrrr" /><phase duration="2" state="rrrrr" /><phase duration="30" state="rrGrr" /><phase duration="3" state="rryrr" /><phase duration="2" state="rrrrr" /><phase duration="30" state="rrrGG" /><phase duration="3" state="rrryy" /><phase duration="2" state="rrrrr" /></tlLogic><tlLogic id="10172696002" type="static" programID="1" offset="286"><phase duration="30" state="GGrr" /><phase duration="3" state="yyrr" /><phase duration="2" state="rrrr" /><phase duration="30" state="rrGG" /><phase duration="3" state="rryy" /><phase duration="2" state="rrrr" /></tlLogic><tlLogic id="10172696006" type="static" programID="1" offset="198"><phase duration="30" state="Gr" /><phase duration="3" state="yr" /><phase duration="2" state="rr" /><phase duration="30" state="rG" /><phase duration="3" state="ry" /><phase duration="2" state="rr" /></tlLogic><tlLogic id="10172696051" type="static" programID="1" offset="104"><phase duration="30" state="Gr" /><phase duration="3" state="yr" /><phase duration="2" state="rr" /><phase duration="30" state="rG" /><phase duration="3" state="ry" /><phase duration="2" state="rr" /></tlLogic><tlLogic id="10172696052" type="static" programID="1" offset="204"><phase duration="30" state="Grrrr" /><phase duration="3" state="yrrrr" /><phase duration="2" state="rrrrr" /><phase duration="30" state="rGrrr" /><phase duration="3" state="ryrrr" /><phase duration="2" state="rrrrr" /><phase duration="30" state="rrGrr" /><phase duration="3" state="rryrr" /><phase duration="2" state="rrrrr" /><phase duration="30" state="rrrGG" /><phase duration="3" state="rrryy" /><phase duration="2" state="rrrrr" /></tlLogic><tlLogic id="10172696053" type="static" programID="1" offset="42"><phase duration="30" state="GGrr" /><phase duration="3" state="yyrr" /><phase duration="2" state="rrrr" /><phase duration="30" state="rrGG" /><phase duration="3" state="rryy" /><phase duration="2" state="rrrr" /></tlLogic><tlLogic id="10172696054" type="static" programID="1" offset="258"><phase duration="30" state="Gr" /><phase duration="3" state="yr" /><phase duration="2" state="rr" /><phase duration="30" state="rG" /><phase duration="3" state="ry" /><phase duration="2" state="rr" /></tlLogic><tlLogic id="10199019532" type="static" programID="1" offset="234"><phase duration="30" state="GGrrrrrrrrr" /><phase duration="3" state="yyrrrrrrrrr" /><phase duration="2" state="rrrrrrrrrrr" /><phase duration="30" state="rrGGrrrrrrr" /><phase duration="3" state="rryyrrrrrrr" /><phase duration="2" state="rrrrrrrrrrr" /><phase duration="30" state="rrrrGGrrrrr" /><phase duration="3" state="rrrryyrrrrr" /><phase duration="2" state="rrrrrrrrrrr" /><phase duration="30" state="rrrrrrGGGGG" /><phase duration="3" state="rrrrrryyyyy" /><phase duration="2" state="rrrrrrrrrrr" /></tlLogic><tlLogic id="10199019536" type="static" programID="1" offset="61"><phase duration="30" state="GGrrrrrrrrr" /><phase duration="3" state="yyrrrrrrrrr" /><phase duration="2" state="rrrrrrrrrrr" /><phase duration="30" state="rrGGrrrrrrr" /><phase duration="3" state="rryyrrrrrrr" /><phase duration="2" state="rrrrrrrrrrr" /><phase duration="30" state="rrrrGGrrrrr" /><phase duration="3" state="rrrryyrrrrr" /><phase duration="2" state="rrrrrrrrrrr" /><phase duration="30" state="rrrrrrGGGGG" /><phase duration="3" state="rrrrrryyyyy" /><phase duration="2" state="rrrrrrrrrrr" /></tlLogic><tlLogic id="10199019541" type="static" programID="1" offset="298"><phase duration="30" state="GGrrrrrrrrr" /><phase duration="3" state="yyrrrrrrrrr" /><phase duration="2" state="rrrrrrrrrrr" /><phase duration="30" state="rrGGrrrrrrr" /><phase duration="3" state="rryyrrrrrrr" /><phase duration="2" state="rrrrrrrrrrr" /><phase duration="30" state="rrrrGGrrrrr" /><phase duration="3" state="rrrryyrrrrr" /><phase duration="2" state="rrrrrrrrrrr" /><phase duration="30" state="rrrrrrGGGGG" /><phase duration="3" state="rrrrrryyyyy" /><phase duration="2" state="rrrrrrrrrrr" /></tlLogic><tlLogic id="10227827561" type="static" programID="1" offset="299"><phase duration="30" state="GGrrrrrrrrr" /><phase duration="3" state="yyrrrrrrrrr" /><phase duration="2" state="rrrrrrrrrrr" /><phase duration="30" state="rrGGrrrrrrr" /><phase duration="3" state="rryyrrrrrrr" /><phase duration="2" state="rrrrrrrrrrr" /><phase duration="30" state="rrrrGGrrrrr" /><phase duration="3" state="rrrryyrrrrr" /><phase duration="2" state="rrrrrrrrrrr" /><phase duration="30" state="rrrrrrGGGGG" /><phase duration="3" state="rrrrrryyyyy" /><phase duration="2" state="rrrrrrrrrrr" /></tlLogic><tlLogic id="10233909441" type="static" programID="1" offset="132"><phase duration="30" state="Grr" /><phase duration="3" state="yrr" /><phase duration="2" state="rrr" /><phase duration="30" state="rGr" /><phase duration="3" state="ryr" /><phase duration="2" state="rrr" /><phase duration="30" state="rrG" /><phase duration="3" state="rry" /><phase duration="2" state="rrr" /></tlLogic><tlLogic id="10233909449" type="static" programID="1" offset="288"><phase duration="30" state="GGrr" /><phase duration="3" state="yyrr" /><phase duration="2" state="rrrr" /><phase duration="30" state="rrGG" /><phase duration="3" state="rryy" /><phase duration="2" state="rrrr" /></tlLogic><tlLogic id="10234099497" type="static" programID="1" offset="88"><phase duration="30" state="Gr" /><phase duration="3" state="yr" /><phase duration="2" state="rr" /><phase duration="30" state="rG" /><phase duration="3" state="ry" /><phase duration="2" state="rr" /></tlLogic><tlLogic id="10234099515" type="static" programID="1" offset="297"><phase duration="30" state="Gr" /><phase duration="3" state="yr" /><phase duration="2" state="rr" /><phase duration="30" state="rG" /><phase duration="3" state="ry" /><phase duration="2" state="rr" /></tlLogic><tlLogic id="10234213881" type="static" programID="1" offset="264"><phase duration="30" state="Grr" /><phase duration="3" state="yrr" /><phase duration="2" state="rrr" /><phase duration="30" state="rGr" /><phase duration="3" state="ryr" /><phase duration="2" state="rrr" /><phase duration="30" state="rrG" /><phase duration="3" state="rry" /><phase duration="2" state="rrr" /></tlLogic><tlLogic id="10234213884" type="static" programID="1" offset="158"><phase duration="30" state="Gr" /><phase duration="3" state="yr" /><phase duration="2" state="rr" /><phase duration="30" state="rG" /><phase duration="3" state="ry" /><phase duration="2" state="rr" /></tlLogic><tlLogic id="10234213908" type="static" programID="1" offset="31"><phase duration="30" state="Gr" /><phase duration="3" state="yr" /><phase duration="2" state="rr" /><phase duration="30" state="rG" /><phase duration="3" state="ry" /><phase duration="2" state="rr" /></tlLogic><tlLogic id="10234213912" type="static" programID="1" offset="5"><phase duration="30" state="GGrr" /><phase duration="3" state="yyrr" /><phase duration="2" state="rrrr" /><phase duration="30" state="rrGG" /><phase duration="3" state="rryy" /><phase duration="2" state="rrrr" /></tlLogic><tlLogic id="10234213914" type="static" programID="1" offset="25"><phase duration="30" state="GGrr" /><phase duration="3" state="yyrr" /><phase duration="2" state="rrrr" /><phase duration="30" state="rrGG" /><phase duration="3" state="rryy" /><phase duration="2" state="rrrr" /></tlLogic><tlLogic id="10234213915" type="static" programID="1" offset="119"><phase duration="30" state="Gr" /><phase duration="3" state="yr" /><phase duration="2" state="rr" /><phase duration="30" state="rG" /><phase duration="3" state="ry" /><phase duration="2" state="rr" /></tlLogic><tlLogic id="10234227718" type="static" programID="1" offset="238"><phase duration="30" state="Gr" /><phase duration="3" state="yr" /><phase duration="2" state="rr" /><phase duration="30" state="rG" /><phase duration="3" state="ry" /><phase duration="2" state="rr" /></tlLogic><tlLogic id="10234227739" type="static" programID="1" offset="62"><phase duration="30" state="G" /><phase duration="3" state="y" /><phase duration="2" state="r" /><phase duration="30" state="r" /><phase duration="3" state="r" /><phase duration="2" state="r" /><phase duration="30" state="r" /><phase duration="3" state="r" /><phase duration="2" state="r" /><phase duration="30" state="r" /><phase duration="3" state="r" /><phase duration="2" state="r" /></tlLogic><tlLogic id="10234227740" type="static" programID="1" offset="219"><phase duration="30" state="G" /><phase duration="3" state="y" /><phase duration="2" state="r" /><phase duration="30" state="r" /><phase duration="3" state="r" /><phase duration="2" state="r" /><phase duration="30" state="r" /><phase duration="3" state="r" /><phase duration="2" state="r" /><phase duration="30" state="r" /><phase duration="3" state="r" /><phase duration="2" state="r" /></tlLogic><tlLogic id="10234388652" type="static" programID="1" offset="24"><phase duration="30" state="Grr" /><phase duration="3" state="yrr" /><phase duration="2" state="rrr" /><phase duration="30" state="rGr" /><phase duration="3" state="ryr" /><phase duration="2" state="rrr" /><phase duration="30" state="rrG" /><phase duration="3" state="rry" /><phase duration="2" state="rrr" /></tlLogic><tlLogic id="10234388654" type="static" programID="1" offset="23"><phase duration="30" state="GGrr" /><phase duration="3" state="yyrr" /><phase duration="2" state="rrrr" /><phase duration="30" state="rrGG" /><phase duration="3" state="rryy" /><phase duration="2" state="rrrr" /></tlLogic><tlLogic id="10234388685" type="static" programID="1" offset="214"><phase duration="30" state="Grr" /><phase duration="3" state="yrr" /><phase duration="2" state="rrr" /><phase duration="30" state="rGr" /><phase duration="3" state="ryr" /><phase duration="2" state="rrr" /><phase duration="30" state="rrG" /><phase duration="3" state="rry" /><phase duration="2" state="rrr" /></tlLogic><tlLogic id="10234456010" type="static" programID="1" offset="146"><phase duration="30" state="Gr" /><phase duration="3" state="yr" /><phase duration="2" state="rr" /><phase duration="30" state="rG" /><phase duration="3" state="ry" /><phase duration="2" state="rr" /></tlLogic><tlLogic id="10234456012" type="static" programID="1" offset="23"><phase duration="30" state="Gr" /><phase duration="3" state="yr" /><phase duration="2" state="rr" /><phase duration="30" state="rG" /><phase duration="3" state="ry" /><phase duration="2" state="rr" /></tlLogic><tlLogic id="10234456014" type="static" programID="1" offset="285"><phase duration="30" state="Gr" /><phase duration="3" state="yr" /><phase duration="2" state="rr" /><phase duration="30" state="rG" /><phase duration="3" state="ry" /><phase duration="2" state="rr" /></tlLogic><tlLogic id="10234456015" type="static" programID="1" offset="72"><phase duration="30" state="Gr" /><phase duration="3" state="yr" /><phase duration="2" state="rr" /><phase duration="30" state="rG" /><phase duration="3" state="ry" /><phase duration="2" state="rr" /></tlLogic><tlLogic id="10234464375" type="static" programID="1" offset="154"><phase duration="30" state="Gr" /><phase duration="3" state="yr" /><phase duration="2" state="rr" /><phase duration="30" state="rG" /><phase duration="3" state="ry" /><phase duration="2" state="rr" /></tlLogic><tlLogic id="10234464404" type="static" programID="1" offset="93"><phase duration="30" state="Gr" /><phase duration="3" state="yr" /><phase duration="2" state="rr" /><phase duration="30" state="rG" /><phase duration="3" state="ry" /><phase duration="2" state="rr" /></tlLogic><tlLogic id="10234464416" type="static" programID="1" offset="102"><phase duration="30" state="Gr" /><phase duration="3" state="yr" /><phase duration="2" state="rr" /><phase duration="30" state="rG" /><phase duration="3" state="ry" /><phase duration="2" state="rr" /></tlLogic><tlLogic id="10234478018" type="static" programID="1" offset="248"><phase duration="30" state="Gr" /><phase duration="3" state="yr" /><phase duration="2" state="rr" /><phase duration="30" state="rG" /><phase duration="3" state="ry" /><phase duration="2" state="rr" /></tlLogic><tlLogic id="10234478022" type="static" programID="1" offset="263"><phase duration="30" state="Gr" /><phase duration="3" state="yr" /><phase duration="2" state="rr" /><phase duration="30" state="rG" /><phase duration="3" state="ry" /><phase duration="2" state="rr" /></tlLogic><tlLogic id="10234478023" type="static" programID="1" offset="6"><phase duration="30" state="Gr" /><phase duration="3" state="yr" /><phase duration="2" state="rr" /><phase duration="30" state="rG" /><phase duration="3" state="ry" /><phase duration="2" state="rr" /></tlLogic><tlLogic id="10234494939" type="static" programID="1" offset="268"><phase duration="30" state="Gr" /><phase duration="3" state="yr" /><phase duration="2" state="rr" /><phase duration="30" state="rG" /><phase duration="3" state="ry" /><phase duration="2" state="rr" /></tlLogic><tlLogic id="10234494940" type="static" programID="1" offset="121"><phase duration="30" state="Gr" /><phase duration="3" state="yr" /><phase duration="2" state="rr" /><phase duration="30" state="rG" /><phase duration="3" state="ry" /><phase duration="2" state="rr" /></tlLogic><tlLogic id="10234494941" type="static" programID="1" offset="24"><phase duration="30" state="Gr" /><phase duration="3" state="yr" /><phase duration="2" state="rr" /><phase duration="30" state="rG" /><phase duration="3" state="ry" /><phase duration="2" state="rr" /></tlLogic><tlLogic id="10234494942" type="static" programID="1" offset="36"><phase duration="30" state="Gr" /><phase duration="3" state="yr" /><phase duration="2" state="rr" /><phase duration="30" state="rG" /><phase duration="3" state="ry" /><phase duration="2" state="rr" /></tlLogic><tlLogic id="10234494999" type="static" programID="1" offset="139"><phase duration="30" state="Gr" /><phase duration="3" state="yr" /><phase duration="2" state="rr" /><phase duration="30" state="rG" /><phase duration="3" state="ry" /><phase duration="2" state="rr" /></tlLogic><tlLogic id="10234495000" type="static" programID="1" offset="8"><phase duration="30" state="Gr" /><phase duration="3" state="yr" /><phase duration="2" state="rr" /><phase duration="30" state="rG" /><phase duration="3" state="ry" /><phase duration="2" state="rr" /></tlLogic><tlLogic id="10234495001" type="static" programID="1" offset="54"><phase duration="30" state="Gr" /><phase duration="3" state="yr" /><phase duration="2" state="rr" /><phase duration="30" state="rG" /><phase duration="3" state="ry" /><phase duration="2" state="rr" /></tlLogic><tlLogic id="10234495002" type="static" programID="1" offset="57"><phase duration="30" state="Gr" /><phase duration="3" state="yr" /><phase duration="2" state="rr" /><phase duration="30" state="rG" /><phase duration="3" state="ry" /><phase duration="2" state="rr" /></tlLogic><tlLogic id="10234519169" type="static" programID="1" offset="125"><phase duration="30" state="Gr" /><phase duration="3" state="yr" /><phase duration="2" state="rr" /><phase duration="30" state="rG" /><phase duration="3" state="ry" /><phase duration="2" state="rr" /></tlLogic><tlLogic id="10234519170" type="static" programID="1" offset="139"><phase duration="30" state="Gr" /><phase duration="3" state="yr" /><phase duration="2" state="rr" /><phase duration="30" state="rG" /><phase duration="3" state="ry" /><phase duration="2" state="rr" /></tlLogic><tlLogic id="10234519171" type="static" programID="1" offset="144"><phase duration="30" state="Gr" /><phase duration="3" state="yr" /><phase duration="2" state="rr" /><phase duration="30" state="rG" /><phase duration="3" state="ry" /><phase duration="2" state="rr" /></tlLogic><tlLogic id="10255389076" type="static" programID="1" offset="166"><phase duration="30" state="GGrrrrrr" /><phase duration="3" state="yyrrrrrr" /><phase duration="2" state="rrrrrrrr" /><phase duration="30" state="rrGGrrrr" /><phase duration="3" state="rryyrrrr" /><phase duration="2" state="rrrrrrrr" /><phase duration="30" state="rrrrGGrr" /><phase duration="3" state="rrrryyrr" /><phase duration="2" state="rrrrrrrr" /><phase duration="30" state="rrrrrrGG" /><phase duration="3" state="rrrrrryy" /><phase duration="2" state="rrrrrrrr" /></tlLogic><tlLogic id="10293213598" type="static" programID="1" offset="212"><phase duration="30" state="GGrrrrrrrrr" /><phase duration="3" state="yyrrrrrrrrr" /><phase duration="2" state="rrrrrrrrrrr" /><phase duration="30" state="rrGGrrrrrrr" /><phase duration="3" state="rryyrrrrrrr" /><phase duration="2" state="rrrrrrrrrrr" /><phase duration="30" state="rrrrGGrrrrr" /><phase duration="3" state="rrrryyrrrrr" /><phase duration="2" state="rrrrrrrrrrr" /><phase duration="30" state="rrrrrrGGGGG" /><phase duration="3" state="rrrrrryyyyy" /><phase duration="2" state="rrrrrrrrrrr" /></tlLogic><tlLogic id="10293213602" type="static" programID="1" offset="175"><phase duration="30" state="GGrrrrrrrrr" /><phase duration="3" state="yyrrrrrrrrr" /><phase duration="2" state="rrrrrrrrrrr" /><phase duration="30" state="rrGGrrrrrrr" /><phase duration="3" state="rryyrrrrrrr" /><phase duration="2" state="rrrrrrrrrrr" /><phase duration="30" state="rrrrGGrrrrr" /><phase duration="3" state="rrrryyrrrrr" /><phase duration="2" state="rrrrrrrrrrr" /><phase duration="30" state="rrrrrrGGGGG" /><phase duration="3" state="rrrrrryyyyy" /><phase duration="2" state="rrrrrrrrrrr" /></tlLogic><tlLogic id="10536933721" type="static" programID="1" offset="249"><phase duration="30" state="Grrrr" /><phase duration="3" state="yrrrr" /><phase duration="2" state="rrrrr" /><phase duration="30" state="rGrrr" /><phase duration="3" state="ryrrr" /><phase duration="2" state="rrrrr" /><phase duration="30" state="rrGrr" /><phase duration="3" state="rryrr" /><phase duration="2" state="rrrrr" /><phase duration="30" state="rrrGG" /><phase duration="3" state="rrryy" /><phase duration="2" state="rrrrr" /></tlLogic><tlLogic id="10536933723" type="static" programID="1" offset="212"><phase duration="30" state="Gr" /><phase duration="3" state="yr" /><phase duration="2" state="rr" /><phase duration="30" state="rG" /><phase duration="3" state="ry" /><phase duration="2" state="rr" /></tlLogic><tlLogic id="10536933724" type="static" programID="1" offset="280"><phase duration="30" state="Grrrr" /><phase duration="3" state="yrrrr" /><phase duration="2" state="rrrrr" /><phase duration="30" state="rGrrr" /><phase duration="3" state="ryrrr" /><phase duration="2" state="rrrrr" /><phase duration="30" state="rrGrr" /><phase duration="3" state="rryrr" /><phase duration="2" state="rrrrr" /><phase duration="30" state="rrrGG" /><phase duration="3" state="rrryy" /><phase duration="2" state="rrrrr" /></tlLogic><tlLogic id="10536933726" type="static" programID="1" offset="297"><phase duration="30" state="Gr" /><phase duration="3" state="yr" /><phase duration="2" state="rr" /><phase duration="30" state="rG" /><phase duration="3" state="ry" /><phase duration="2" state="rr" /></tlLogic><tlLogic id="10536933736" type="static" programID="1" offset="98"><phase duration="30" state="GGrr" /><phase duration="3" state="yyrr" /><phase duration="2" state="rrrr" /><phase duration="30" state="rrGG" /><phase duration="3" state="rryy" /><phase duration="2" state="rrrr" /></tlLogic><tlLogic id="10536933741" type="static" programID="1" offset="30"><phase duration="30" state="GGrr" /><phase duration="3" state="yyrr" /><phase duration="2" state="rrrr" /><phase duration="30" state="rrGG" /><phase duration="3" state="rryy" /><phase duration="2" state="rrrr" /></tlLogic><tlLogic id="10536933744" type="static" programID="1" offset="164"><phase duration="30" state="GGrr" /><phase duration="3" state="yyrr" /><phase duration="2" state="rrrr" /><phase duration="30" state="rrGG" /><phase duration="3" state="rryy" /><phase duration="2" state="rrrr" /></tlLogic><tlLogic id="10536933747" type="static" programID="1" offset="267"><phase duration="30" state="Grrrr" /><phase duration="3" state="yrrrr" /><phase duration="2" state="rrrrr" /><phase duration="30" state="rGrrr" /><phase duration="3" state="ryrrr" /><phase duration="2" state="rrrrr" /><phase duration="30" state="rrGrr" /><phase duration="3" state="rryrr" /><phase duration="2" state="rrrrr" /><phase duration="30" state="rrrGG" /><phase duration="3" state="rrryy" /><phase duration="2" state="rrrrr" /></tlLogic><tlLogic id="10536933750" type="static" programID="1" offset="3"><phase duration="30" state="Grrrr" /><phase duration="3" state="yrrrr" /><phase duration="2" state="rrrrr" /><phase duration="30" state="rGrrr" /><phase duration="3" state="ryrrr" /><phase duration="2" state="rrrrr" /><phase duration="30" state="rrGrr" /><phase duration="3" state="rryrr" /><phase duration="2" state="rrrrr" /><phase duration="30" state="rrrGG" /><phase duration="3" state="rrryy" /><phase duration="2" state="rrrrr" /></tlLogic><tlLogic id="10728674106" type="static" programID="1" offset="138"><phase duration="30" state="Grrrr" /><phase duration="3" state="yrrrr" /><phase duration="2" state="rrrrr" /><phase duration="30" state="rGrrr" /><phase duration="3" state="ryrrr" /><phase duration="2" state="rrrrr" /><phase duration="30" state="rrGrr" /><phase duration="3" state="rryrr" /><phase duration="2" state="rrrrr" /><phase duration="30" state="rrrGG" /><phase duration="3" state="rrryy" /><phase duration="2" state="rrrrr" /></tlLogic><tlLogic id="10728674543" type="static" programID="1" offset="113"><phase duration="30" state="GGrr" /><phase duration="3" state="yyrr" /><phase duration="2" state="rrrr" /><phase duration="30" state="rrGG" /><phase duration="3" state="rryy" /><phase duration="2" state="rrrr" /></tlLogic><tlLogic id="10728674545" type="static" programID="1" offset="191"><phase duration="30" state="Gr" /><phase duration="3" state="yr" /><phase duration="2" state="rr" /><phase duration="30" state="rG" /><phase duration="3" state="ry" /><phase duration="2" state="rr" /></tlLogic><tlLogic id="10728674547" type="static" programID="1" offset="167"><phase duration="30" state="GGrr" /><phase duration="3" state="yyrr" /><phase duration="2" state="rrrr" /><phase duration="30" state="rrGG" /><phase duration="3" state="rryy" /><phase duration="2" state="rrrr" /></tlLogic><tlLogic id="10755248962" type="static" programID="1" offset="194"><phase duration="30" state="Gr" /><phase duration="3" state="yr" /><phase duration="2" state="rr" /><phase duration="30" state="rG" /><phase duration="3" state="ry" /><phase duration="2" state="rr" /></tlLogic><tlLogic id="10755248963" type="static" programID="1" offset="62"><phase duration="30" state="Gr" /><phase duration="3" state="yr" /><phase duration="2" state="rr" /><phase duration="30" state="rG" /><phase duration="3" stat