<?xml version="1.0" encoding="UTF-8"?>

<!-- generated on 2025-04-24 09:32:57.556029 by randomTrips.py UNKNOWN
<configuration>
    <net-file value="osm.net.xml"/>
    <end value="1000.0"/>
    <period value="0.5"/>
</configuration>
-->

<routes xmlns:xsi="http://www.w3.org/2001/XMLSchema-instance" xsi:noNamespaceSchemaLocation="http://sumo.dlr.de/xsd/routes_file.xsd">
    <trip id="0" depart="0.00" from="467222856#0" to="-1315845427#2"/>
    <trip id="1" depart="0.50" from="1306214130" to="1189567313#5"/>
    <trip id="2" depart="1.00" from="5670172#3" to="496986905#0"/>
    <trip id="3" depart="1.50" from="797654755" to="-481047237#2"/>
    <trip id="4" depart="2.00" from="25199883#9" to="-1329583056"/>
    <trip id="5" depart="2.50" from="1184480986#0" to="420598356#0"/>
    <trip id="6" depart="3.00" from="-1317731495#0" to="1128388463#3"/>
    <trip id="7" depart="3.50" from="479642035#0" to="440633432#0"/>
    <trip id="8" depart="4.00" from="1186021637#1" to="46165807#4"/>
    <trip id="9" depart="4.50" from="5672578#0" to="-1080982439#1"/>
    <trip id="10" depart="5.00" from="5672402#2" to="533472943#1"/>
    <trip id="11" depart="5.50" from="157012398#3" to="1034527687#0"/>
    <trip id="12" depart="6.00" from="954178925#0" to="157012386#23"/>
    <trip id="13" depart="6.50" from="-505598707#1" to="-5670205#1"/>
    <trip id="14" depart="7.00" from="588168464#0" to="46334599#11"/>
    <trip id="15" depart="7.50" from="5672450#0" to="5670058#3"/>
    <trip id="16" depart="8.00" from="438370108#0" to="963575585#0"/>
    <trip id="17" depart="8.50" from="216959248#0" to="451808494#0"/>
    <trip id="18" depart="9.00" from="5673427#0" to="464683316#3"/>
    <trip id="19" depart="9.50" from="653534688#1" to="46139040#0"/>
    <trip id="20" depart="10.00" from="541346246#4" to="-221605487#5"/>
    <trip id="21" depart="10.50" from="1201643836#0" to="1316839633#1"/>
    <trip id="22" depart="11.00" from="-46166212#2" to="1203376572"/>
    <trip id="23" depart="11.50" from="-5670924#1" to="1314038747#0"/>
    <trip id="24" depart="12.00" from="46629376#0" to="195743556#0"/>
    <trip id="25" depart="12.50" from="196116974#4" to="1155451378#0"/>
    <trip id="26" depart="13.00" from="127691872#0" to="852992104"/>
    <trip id="27" depart="13.50" from="474635904#0" to="46348787#3"/>
    <trip id="28" depart="14.00" from="1051841855#0" to="5670012#3"/>
    <trip id="29" depart="14.50" from="1040863519#0" to="221687788#0"/>
    <trip id="30" depart="15.00" from="989390263" to="468016991#1"/>
    <trip id="31" depart="15.50" from="451954041#0" to="505772014#0"/>
    <trip id="32" depart="16.00" from="584971516#0" to="5671327#0"/>
    <trip id="33" depart="16.50" from="1202586279#0" to="-1332815418#1"/>
    <trip id="34" depart="17.00" from="1333699601" to="127693383#3"/>
    <trip id="35" depart="17.50" from="1151034558#2" to="889114533#9"/>
    <trip id="36" depart="18.00" from="68668562#0" to="1333735828#0"/>
    <trip id="37" depart="18.50" from="480112479#0" to="22897633#3"/>
    <trip id="38" depart="19.00" from="843553759#2" to="39513387#0"/>
    <trip id="39" depart="19.50" from="1271746675" to="1238431052#0"/>
    <trip id="40" depart="20.00" from="455501328#0" to="1272153400#0"/>
    <trip id="41" depart="20.50" from="46154330#6" to="806341216#0"/>
    <trip id="42" depart="21.00" from="22902610#0" to="1188676818#0"/>
    <trip id="43" depart="21.50" from="993797876#4" to="420809417#0"/>
    <trip id="44" depart="22.00" from="-496989959#1" to="-226041016#6"/>
    <trip id="45" depart="22.50" from="-5677958" to="465255350"/>
    <trip id="46" depart="23.00" from="5671713#2" to="25564482"/>
    <trip id="47" depart="23.50" from="-420598373#2" to="221694588#0"/>
    <trip id="48" depart="24.00" from="993795186#0" to="432550256"/>
    <trip id="49" depart="24.50" from="963551553#14" to="655255187#0"/>
    <trip id="50" depart="25.00" from="-1135342273#2" to="5669875#0"/>
    <trip id="51" depart="25.50" from="497002544#0" to="439842799#0"/>
    <trip id="52" depart="26.00" from="127691871#0" to="46819497#0"/>
    <trip id="53" depart="26.50" from="-584971525#1" to="32935112"/>
    <trip id="54" depart="27.00" from="384649121#0" to="945167874#0"/>
    <trip id="55" depart="27.50" from="68668559#3" to="1274636982#3"/>
    <trip id="56" depart="28.00" from="420526338#0" to="1080964113#1"/>
    <trip id="57" depart="28.50" from="837515833#0" to="68668539#2"/>
    <trip id="58" depart="29.00" from="1329060631#0" to="467222828#0"/>
    <trip id="59" depart="29.50" from="46348767#4" to="1032031974#0"/>
    <trip id="60" depart="30.00" from="5670814#0" to="439842836#3"/>
    <trip id="61" depart="30.50" from="5671343#2" to="433124968#15"/>
    <trip id="62" depart="31.00" from="-1007811374#1" to="1343029766#0"/>
    <trip id="63" depart="31.50" from="-1238347014#1" to="847932925#0"/>
    <trip id="64" depart="32.00" from="694312424#0" to="5673614"/>
    <trip id="65" depart="32.50" from="1331371890" to="-388695705#2"/>
    <trip id="66" depart="33.00" from="68674968#0" to="904809349#0"/>
    <trip id="67" depart="33.50" from="-46350695#2" to="420354141#0"/>
    <trip id="68" depart="34.00" from="-451954039#8" to="5670778#0"/>
    <trip id="69" depart="34.50" from="5670888#2" to="1002798653#0"/>
    <trip id="70" depart="35.00" from="413050335#3" to="447018423#4"/>
    <trip id="71" depart="35.50" from="1271746675" to="68668553#0"/>
    <trip id="72" depart="36.00" from="25562079#0" to="1158491835"/>
    <trip id="73" depart="36.50" from="439842823#0" to="5670070#0"/>
    <trip id="74" depart="37.00" from="1127576696#0" to="1333500711"/>
    <trip id="75" depart="37.50" from="993793442#0" to="479642035#6"/>
    <trip id="76" depart="38.00" from="34080062#4" to="420888144#0"/>
    <trip id="77" depart="38.50" from="-767372817#2" to="1201217260#0"/>
    <trip id="78" depart="39.00" from="157012386#19" to="46160403#0"/>
    <trip id="79" depart="39.50" from="1202586282#13" to="1188730002#9"/>
    <trip id="80" depart="40.00" from="-460581660#1" to="46609036#0"/>
    <trip id="81" depart="40.50" from="1202571928#0" to="814612602#8"/>
    <trip id="82" depart="41.00" from="646635889#3" to="-460581660#3"/>
    <trip id="83" depart="41.50" from="1224490987#0" to="492489893#0"/>
    <trip id="84" depart="42.00" from="1156475401#0" to="1010159653#0"/>
    <trip id="85" depart="42.50" from="849942510#3" to="46116326#0"/>
    <trip id="86" depart="43.00" from="412174929#1" to="5671472#0"/>
    <trip id="87" depart="43.50" from="5672450#4" to="110542345#0"/>
    <trip id="88" depart="44.00" from="-560788342#6" to="321993367#6"/>
    <trip id="89" depart="44.50" from="25562090#0" to="403405990#0"/>
    <trip id="90" depart="45.00" from="5670012#0" to="496980201#2"/>
    <trip id="91" depart="45.50" from="976050704#2" to="-5670600#1"/>
    <trip id="92" depart="46.00" from="22914180#2" to="164420607#0"/>
    <trip id="93" depart="46.50" from="653534688#1" to="124814435#6"/>
    <trip id="94" depart="47.00" from="1088321125#0" to="370169932#0"/>
    <trip id="95" depart="47.50" from="25199883#9" to="1314046609#1"/>
    <trip id="96" depart="48.00" from="1238545752#0" to="846137635#3"/>
    <trip id="97" depart="48.50" from="348477348#9" to="656827422#0"/>
    <trip id="98" depart="49.00" from="447001271#4" to="-22909247"/>
    <trip id="99" depart="49.50" from="993797891#0" to="5678759#4"/>
    <trip id="100" depart="50.00" from="962602326#0" to="847931435#3"/>
    <trip id="101" depart="50.50" from="591772210#4" to="1050255675#0"/>
    <trip id="102" depart="51.00" from="420352240#0" to="1167942377#0"/>
    <trip id="103" depart="51.50" from="22909136#0" to="-39662323#5"/>
    <trip id="104" depart="52.00" from="216959250#3" to="978439270#0"/>
    <trip id="105" depart="52.50" from="1271746676#0" to="5671459#0"/>
    <trip id="106" depart="53.00" from="38605247#2" to="25564571#2"/>
    <trip id="107" depart="53.50" from="954178925#0" to="993795183"/>
    <trip id="108" depart="54.00" from="451954038#4" to="5669842#0"/>
    <trip id="109" depart="54.50" from="1031408128" to="1329353970#0"/>
    <trip id="110" depart="55.00" from="959785458" to="46154281#0"/>
    <trip id="111" depart="55.50" from="439842838#0" to="5670515#0"/>
    <trip id="112" depart="56.00" from="-38605247#1" to="46154337#3"/>
    <trip id="113" depart="56.50" from="420598236#0" to="616745175#4"/>
    <trip id="114" depart="57.00" from="1032481037#0" to="954955257"/>
    <trip id="115" depart="57.50" from="-46201668#2" to="1088320652#0"/>
    <trip id="116" depart="58.00" from="46171887#2" to="496983397#0"/>
    <trip id="117" depart="58.50" from="1203376570#0" to="-806341217#2"/>
    <trip id="118" depart="59.00" from="767398934#0" to="1238431028#0"/>
    <trip id="119" depart="59.50" from="46171884#3" to="464683319#0"/>
    <trip id="120" depart="60.00" from="25199402#5" to="46154332#0"/>
    <trip id="121" depart="60.50" from="420895282#0" to="849942510#3"/>
    <trip id="122" depart="61.00" from="1135361169#0" to="5669669#4"/>
    <trip id="123" depart="61.50" from="1224492208" to="22897633#6"/>
    <trip id="124" depart="62.00" from="496980200#14" to="1329577833"/>
    <trip id="125" depart="62.50" from="1333729613#1" to="5670584#0"/>
    <trip id="126" depart="63.00" from="-46154281#6" to="39513386#0"/>
    <trip id="127" depart="63.50" from="993797880#0" to="993795186#0"/>
    <trip id="128" depart="64.00" from="-46154291#3" to="116672333#0"/>
    <trip id="129" depart="64.50" from="1271746676#0" to="848016982#0"/>
    <trip id="130" depart="65.00" from="706833046#0" to="706833046#3"/>
    <trip id="131" depart="65.50" from="195745917#0" to="1036714799#0"/>
    <trip id="132" depart="66.00" from="5673619#0" to="541346245#0"/>
    <trip id="133" depart="66.50" from="46431822#0" to="982489289#0"/>
    <trip id="134" depart="67.00" from="480112476#0" to="-1088320651#2"/>
    <trip id="135" depart="67.50" from="5672922#0" to="1329384424#0"/>
    <trip id="136" depart="68.00" from="485556247#0" to="870681743"/>
    <trip id="137" depart="68.50" from="1007837779#0" to="-655255187#1"/>
    <trip id="138" depart="69.00" from="-5672621#2" to="451934642#0"/>
    <trip id="139" depart="69.50" from="1298186395" to="46334602#0"/>
    <trip id="140" depart="70.00" from="5669806#6" to="1138164087"/>
    <trip id="141" depart="70.50" from="46610726#5" to="127690685#0"/>
    <trip id="142" depart="71.00" from="420354141#0" to="814612602#8"/>
    <trip id="143" depart="71.50" from="587038051#0" to="-525038147#2"/>
    <trip id="144" depart="72.00" from="25562090#0" to="1314038687#1"/>
    <trip id="145" depart="72.50" from="-1080978586#0" to="5671197#0"/>
    <trip id="146" depart="73.00" from="466956276#0" to="1271581112#0"/>
    <trip id="147" depart="73.50" from="5670296#0" to="451808493#3"/>
    <trip id="148" depart="74.00" from="256902830#0" to="-1091706625#1"/>
    <trip id="149" depart="74.50" from="-46154337#8" to="729972924#0"/>
    <trip id="150" depart="75.00" from="813970415#0" to="440633442#0"/>
    <trip id="151" depart="75.50" from="5675465#3" to="46154327#5"/>
    <trip id="152" depart="76.00" from="1022549184#2" to="-993793442#1"/>
    <trip id="153" depart="76.50" from="1331921880" to="808611026-AddedOffRampEdge"/>
    <trip id="154" depart="77.00" from="5671973#0" to="654560924#0"/>
    <trip id="155" depart="77.50" from="804521765#0" to="1156469243#0"/>
    <trip id="156" depart="78.00" from="1238431052#3" to="-5671774#20"/>
    <trip id="157" depart="78.50" from="5671393#0" to="730300445#9"/>
    <trip id="158" depart="79.00" from="22927462#3" to="464683329#0"/>
    <trip id="159" depart="79.50" from="1031408127#0" to="847942275"/>
    <trip id="160" depart="80.00" from="663499005#3" to="968388395#0"/>
    <trip id="161" depart="80.50" from="5672621#0" to="727644280#0"/>
    <trip id="162" depart="81.00" from="-1314038729#1" to="5670172#6"/>
    <trip id="163" depart="81.50" from="1365934739#0" to="847952489#0"/>
    <trip id="164" depart="82.00" from="5672184#2" to="663634122#0"/>
    <trip id="165" depart="82.50" from="5672621#0" to="127693200#0"/>
    <trip id="166" depart="83.00" from="5671608#0" to="-573838648#2"/>
    <trip id="167" depart="83.50" from="68668526#3" to="653428657#0"/>
    <trip id="168" depart="84.00" from="1188730002#0" to="5672948#0"/>
    <trip id="169" depart="84.50" from="39015289#1" to="1331346903"/>
    <trip id="170" depart="85.00" from="5671799#0" to="1202586282#6"/>
    <trip id="171" depart="85.50" from="-1274636982#2" to="1117885081#0"/>
    <trip id="172" depart="86.00" from="1343076937" to="663634122#11"/>
    <trip id="173" depart="86.50" from="958158459" to="1314046622#1"/>
    <trip id="174" depart="87.00" from="46819493" to="22914179#0"/>
    <trip id="175" depart="87.50" from="968737542#0" to="439842754#0"/>
    <trip id="176" depart="88.00" from="852992111#0" to="-655255187#1"/>
    <trip id="177" depart="88.50" from="963551553#0" to="1080964113#1"/>
    <trip id="178" depart="89.00" from="955261515#0" to="127693102#0"/>
    <trip id="179" depart="89.50" from="-5673078#1" to="32935112"/>
    <trip id="180" depart="90.00" from="5669993#3" to="1333725594#1"/>
    <trip id="181" depart="90.50" from="46334603#0" to="420809420#4"/>
    <trip id="182" depart="91.00" from="222299238#0" to="46139039#14"/>
    <trip id="183" depart="91.50" from="125479715#9" to="556311124#17"/>
    <trip id="184" depart="92.00" from="-1051550982#2" to="847921887#2"/>
    <trip id="185" depart="92.50" from="439842754#0" to="5669860#3"/>
    <trip id="186" depart="93.00" from="5670299#2" to="496979224#0"/>
    <trip id="187" depart="93.50" from="195743341#3" to="-454963832#2"/>
    <trip id="188" depart="94.00" from="489019752#0" to="1368431456#0"/>
    <trip id="189" depart="94.50" from="1333665708#0" to="597821266#4"/>
    <trip id="190" depart="95.00" from="5669866#0" to="1329580349"/>
    <trip id="191" depart="95.50" from="1332821289#1" to="23168547"/>
    <trip id="192" depart="96.00" from="22914180#0" to="1329042388#0"/>
    <trip id="193" depart="96.50" from="-905906566#2" to="25562077"/>
    <trip id="194" depart="97.00" from="871693849#0" to="496986998#0"/>
    <trip id="195" depart="97.50" from="812936282#4" to="464515614#0"/>
    <trip id="196" depart="98.00" from="1329369155#2" to="447001271#1"/>
    <trip id="197" depart="98.50" from="-1004369132#3" to="1316299824#0"/>
    <trip id="198" depart="99.00" from="278135785#2" to="46154286#0"/>
    <trip id="199" depart="99.50" from="480112478#0" to="39956203#0"/>
    <trip id="200" depart="100.00" from="348477348#3" to="1167942377#0"/>
    <trip id="201" depart="100.50" from="412875705#0" to="812936282#4"/>
    <trip id="202" depart="101.00" from="5671920#3" to="1051841858#0"/>
    <trip id="203" depart="101.50" from="-46348787#2" to="420810621#0"/>
    <trip id="204" depart="102.00" from="46610725#0" to="157012386#14"/>
    <trip id="205" depart="102.50" from="5672948#0" to="5670578#6"/>
    <trip id="206" depart="103.00" from="496980200#4" to="1201217260#0"/>
    <trip id="207" depart="103.50" from="1124499625#0" to="-1289604771"/>
    <trip id="208" depart="104.00" from="1231588528#1" to="413054857#11"/>
    <trip id="209" depart="104.50" from="597821266#0" to="-46154330#2"/>
    <trip id="210" depart="105.00" from="24263967#0" to="46608946#15"/>
    <trip id="211" depart="105.50" from="1111914326#0" to="526839039#0"/>
    <trip id="212" depart="106.00" from="420358898#6" to="1237326682#0"/>
    <trip id="213" depart="106.50" from="480112480#3" to="-1080982435#1"/>
    <trip id="214" depart="107.00" from="5670578#4" to="5671140#3"/>
    <trip id="215" depart="107.50" from="-5672434" to="256902830#0"/>
    <trip id="216" depart="108.00" from="1062029895#0" to="954502538"/>
    <trip id="217" depart="108.50" from="420810622#0" to="-22904149#2"/>
    <trip id="218" depart="109.00" from="1238431052#0" to="597821266#6"/>
    <trip id="219" depart="109.50" from="388240124#11" to="5672244"/>
    <trip id="220" depart="110.00" from="492148704#1" to="986615540#0"/>
    <trip id="221" depart="110.50" from="46171889#0" to="932944326#0"/>
    <trip id="222" depart="111.00" from="788278348#0" to="46431825#3"/>
    <trip id="223" depart="111.50" from="5669860#2" to="420598339#0"/>
    <trip id="224" depart="112.00" from="5673526" to="447001270#0"/>
    <trip id="225" depart="112.50" from="801764674#0" to="5670418#7"/>
    <trip id="226" depart="113.00" from="413045202#2" to="1266830890#0"/>
    <trip id="227" depart="113.50" from="1237326683#1" to="467222812#0"/>
    <trip id="228" depart="114.00" from="5670888#2" to="420904658#0"/>
    <trip id="229" depart="114.50" from="46520833#3" to="1306277595"/>
    <trip id="230" depart="115.00" from="-46165812#1" to="1316299804#0"/>
    <trip id="231" depart="115.50" from="1296083558#0" to="1335028181#0"/>
    <trip id="232" depart="116.00" from="439842831#6" to="1021949719#0"/>
    <trip id="233" depart="116.50" from="1202586283#0" to="525656841#0"/>
    <trip id="234" depart="117.00" from="543902513#0" to="-420904658#3"/>
    <trip id="235" depart="117.50" from="22927765#0" to="439933948#0"/>
    <trip id="236" depart="118.00" from="250049337#1" to="1151033361#0"/>
    <trip id="237" depart="118.50" from="25199870#4" to="814612602#18"/>
    <trip id="238" depart="119.00" from="46154330#0" to="525768549#0"/>
    <trip id="239" depart="119.50" from="630828584#2" to="5670888#4"/>
    <trip id="240" depart="120.00" from="221605487#6" to="-1080982436#1"/>
    <trip id="241" depart="120.50" from="194923770" to="5670600#0"/>
    <trip id="242" depart="121.00" from="616745173#0" to="944692442#0"/>
    <trip id="243" depart="121.50" from="25199402#2" to="5670514#0"/>
    <trip id="244" depart="122.00" from="440633370#0" to="46334598#3"/>
    <trip id="245" depart="122.50" from="1187622115" to="1188730002#0"/>
    <trip id="246" depart="123.00" from="32934362#1" to="-1329363281#0"/>
    <trip id="247" depart="123.50" from="156994969#0" to="496990645"/>
    <trip id="248" depart="124.00" from="22927399" to="1050175622#0"/>
    <trip id="249" depart="124.50" from="39956203#3" to="-993795186#1"/>
    <trip id="250" depart="125.00" from="464683339#4" to="-1317744350#2"/>
    <trip id="251" depart="125.50" from="226193933#10" to="458166892#3"/>
    <trip id="252" depart="126.00" from="-1317731496#1" to="46819916#0"/>
    <trip id="253" depart="126.50" from="1014414688#6" to="396444294#21"/>
    <trip id="254" depart="127.00" from="-227064538#4" to="221605487#9"/>
    <trip id="255" depart="127.50" from="1151036496#0" to="1346484776#0"/>
    <trip id="256" depart="128.00" from="5670785#0" to="221605487#9"/>
    <trip id="257" depart="128.50" from="5670584#0" to="5673619#0"/>
    <trip id="258" depart="129.00" from="1254245275#2" to="-46334605#14"/>
    <trip id="259" depart="129.50" from="-1238347014#1" to="439842836#6"/>
    <trip id="260" depart="130.00" from="997455683" to="194923770"/>
    <trip id="261" depart="130.50" from="479642035#6" to="5671429#15"/>
    <trip id="262" depart="131.00" from="479642042#0" to="5670633#3"/>
    <trip id="263" depart="131.50" from="912475761#0" to="1135342273#0"/>
    <trip id="264" depart="132.00" from="-1238431052#2" to="1031408128"/>
    <trip id="265" depart="132.50" from="-889627470#1" to="496977101#0"/>
    <trip id="266" depart="133.00" from="458106345#3" to="1187622116"/>
    <trip id="267" depart="133.50" from="536917119#0" to="5670932#0"/>
    <trip id="268" depart="134.00" from="1050255674#2" to="46334605#7"/>
    <trip id="269" depart="134.50" from="5670515#0" to="-630828599"/>
    <trip id="270" depart="135.00" from="5672986#0" to="955301423#6"/>
    <trip id="271" depart="135.50" from="-5672986#2" to="-1316299815#1"/>
    <trip id="272" depart="136.00" from="1333438296#0" to="496988369#0"/>
    <trip id="273" depart="136.50" from="954496239#1" to="22898269#0"/>
    <trip id="274" depart="137.00" from="5669639#2" to="-46165807#1"/>
    <trip id="275" depart="137.50" from="524388531#0" to="465255350"/>
    <trip id="276" depart="138.00" from="-5671307#1" to="5671261#0"/>
    <trip id="277" depart="138.50" from="597821267#0" to="46332300#2"/>
    <trip id="278" depart="139.00" from="-767372817#2" to="974294810#0"/>
    <trip id="279" depart="139.50" from="5671429#15" to="188559800#3"/>
    <trip id="280" depart="140.00" from="256902831#2" to="196117028#0"/>
    <trip id="281" depart="140.50" from="420598332#0" to="165777255#0"/>
    <trip id="282" depart="141.00" from="597821266#0" to="5673085#0"/>
    <trip id="283" depart="141.50" from="-5672138#2" to="954955257"/>
    <trip id="284" depart="142.00" from="46629376#0" to="5673452"/>
    <trip id="285" depart="142.50" from="54689817#6" to="34079830#0"/>
    <trip id="286" depart="143.00" from="5670092#4" to="957085297"/>
    <trip id="287" depart="143.50" from="127693383#3" to="5672604#4"/>
    <trip id="288" depart="144.00" from="439842751" to="420352241#0"/>
    <trip id="289" depart="144.50" from="32934362#0" to="5670084#0"/>
    <trip id="290" depart="145.00" from="127693199#2" to="616745173#0"/>
    <trip id="291" depart="145.50" from="5673530#0" to="-480682392#6"/>
    <trip id="292" depart="146.00" from="706833047#0" to="1237326681#0"/>
    <trip id="293" depart="146.50" from="396444294#6" to="46350694#0"/>
    <trip id="294" depart="147.00" from="216959250#3" to="-1329042388#2"/>
    <trip id="295" depart="147.50" from="598435627#0" to="1080982432"/>
    <trip id="296" depart="148.00" from="1151039415#2" to="5672138#3"/>
    <trip id="297" depart="148.50" from="157012398#3" to="711363473#1"/>
    <trip id="298" depart="149.00" from="539096162#0" to="1313892250"/>
    <trip id="299" depart="149.50" from="-1116636950#1" to="905906566#0"/>
    <trip id="300" depart="150.00" from="-46350695#2" to="5669866#5"/>
    <trip id="301" depart="150.50" from="420354141#0" to="5670711#0"/>
    <trip id="302" depart="151.00" from="524388531#0" to="468414634#4"/>
    <trip id="303" depart="151.50" from="420358890#0" to="5671774#11"/>
    <trip id="304" depart="152.00" from="-524355736#1" to="1188730086#3"/>
    <trip id="305" depart="152.50" from="524394634#3" to="1331921880"/>
    <trip id="306" depart="153.00" from="46154286#0" to="413050335#1"/>
    <trip id="307" depart="153.50" from="428569470#0" to="256902831#0"/>
    <trip id="308" depart="154.00" from="5670462#2" to="1372100662#0"/>
    <trip id="309" depart="154.50" from="541329572#0" to="129834314#0"/>
    <trip id="310" depart="155.00" from="124814435#8" to="-814612602#2"/>
    <trip id="311" depart="155.50" from="110489637#0" to="-770524298#3"/>
    <trip id="312" depart="156.00" from="438366913#1" to="5670814#10"/>
    <trip id="313" depart="156.50" from="1080982435#0" to="1185872416#0"/>
    <trip id="314" depart="157.00" from="420351719" to="5669953#0"/>
    <trip id="315" depart="157.50" from="968394451#0" to="421825696"/>
    <trip id="316" depart="158.00" from="1314051816#0" to="-5671315#1"/>
    <trip id="317" depart="158.50" from="1111914323#1" to="1202586282#3"/>
    <trip id="318" depart="159.00" from="1073907383" to="-1136699159#4"/>
    <trip id="319" depart="159.50" from="433398367#0" to="1306277593"/>
    <trip id="320" depart="160.00" from="963975252" to="451954038#0"/>
    <trip id="321" depart="160.50" from="533472709" to="-978675658#2"/>
    <trip id="322" depart="161.00" from="667597422#0" to="420358896#7"/>
    <trip id="323" depart="161.50" from="68668539#2" to="46139034#2"/>
    <trip id="324" depart="162.00" from="40709928#0" to="348477348#4"/>
    <trip id="325" depart="162.50" from="1080982432" to="-23168580#2"/>
    <trip id="326" depart="163.00" from="886830947#0" to="414743429#0"/>
    <trip id="327" depart="163.50" from="5673073#3" to="22914182#0"/>
    <trip id="328" depart="164.00" from="-46154330#6" to="46608946#12"/>
    <trip id="329" depart="164.50" from="-25564571#2" to="1027206709#3"/>
    <trip id="330" depart="165.00" from="456313638#0" to="1330593111#0"/>
    <trip id="331" depart="165.50" from="992141077#6" to="-732543750#0"/>
    <trip id="332" depart="166.00" from="5670832#0" to="46334605#2"/>
    <trip id="333" depart="166.50" from="5671668#4" to="1202563952#0"/>
    <trip id="334" depart="167.00" from="420895278#0" to="37890350#1"/>
    <trip id="335" depart="167.50" from="348477348#8" to="654560917#0"/>
    <trip id="336" depart="168.00" from="989390266" to="1331371890"/>
    <trip id="337" depart="168.50" from="464683329#12" to="46349386#0"/>
    <trip id="338" depart="169.00" from="5670254#10" to="905906565#0"/>
    <trip id="339" depart="169.50" from="1145069303#0" to="1156475211#0"/>
    <trip id="340" depart="170.00" from="481047237#0" to="1036714798#0"/>
    <trip id="341" depart="170.50" from="1053554760#0" to="-46160244#1"/>
    <trip id="342" depart="171.00" from="-1068067609" to="37890350#1"/>
    <trip id="343" depart="171.50" from="46171883#0" to="1317731496#0"/>
    <trip id="344" depart="172.00" from="1202586284#0" to="54689817#2"/>
    <trip id="345" depart="172.50" from="541330444#0" to="388240124#0"/>
    <trip id="346" depart="173.00" from="515879035#0" to="847873803#0"/>
    <trip id="347" depart="173.50" from="5671608#6" to="464964299#0"/>
    <trip id="348" depart="174.00" from="481403101#0" to="848021604#0"/>
    <trip id="349" depart="174.50" from="25564540#0" to="440633423#0"/>
    <trip id="350" depart="175.00" from="474635898#0" to="827979008#4"/>
    <trip id="351" depart="175.50" from="5673210#12" to="-460624363#1"/>
    <trip id="352" depart="176.00" from="1049837362#0" to="1332825247"/>
    <trip id="353" depart="176.50" from="5670532#3" to="46116177"/>
    <trip id="354" depart="177.00" from="1316299823#0" to="-895349521#1"/>
    <trip id="355" depart="177.50" from="521358279" to="536917120#0"/>
    <trip id="356" depart="178.00" from="889114533#0" to="420598236#0"/>
    <trip id="357" depart="178.50" from="420358897#0" to="-46332295#14"/>
    <trip id="358" depart="179.00" from="-177127305#2" to="32934355"/>
    <trip id="359" depart="179.50" from="1335295893#0" to="125436141#0"/>
    <trip id="360" depart="180.00" from="-496990645" to="955261513#3"/>
    <trip id="361" depart="180.50" from="5678062" to="46139037#0"/>
    <trip id="362" depart="181.00" from="932944326#1" to="997125811#0"/>
    <trip id="363" depart="181.50" from="496980200#19" to="1296664633#0"/>
    <trip id="364" depart="182.00" from="-177127305#6" to="5670658#0"/>
    <trip id="365" depart="182.50" from="40709928#9" to="479642042#0"/>
    <trip id="366" depart="183.00" from="845359325#8" to="1080982431#0"/>
    <trip id="367" depart="183.50" from="46154337#0" to="46610734#3"/>
    <trip id="368" depart="184.00" from="420358891" to="-524610937#1"/>
    <trip id="369" depart="184.50" from="183010767#0" to="156994955#0"/>
    <trip id="370" depart="185.00" from="496978218#0" to="646635889#3"/>
    <trip id="371" depart="185.50" from="1351956735#0" to="525038147#0"/>
    <trip id="372" depart="186.00" from="1316299815#0" to="903589927#0"/>
    <trip id="373" depart="186.50" from="5672871#5" to="450807242#0"/>
    <trip id="374" depart="187.00" from="38605247#0" to="1333735827#0"/>
    <trip id="375" depart="187.50" from="1335365216" to="963551553#0"/>
    <trip id="376" depart="188.00" from="22927287#6" to="420809448#0"/>
    <trip id="377" depart="188.50" from="986615540#2" to="480682391#0"/>
    <trip id="378" depart="189.00" from="439933928#3" to="24264114#0"/>
    <trip id="379" depart="189.50" from="1088320647#0" to="195743264#2"/>
    <trip id="380" depart="190.00" from="5670658#0" to="465098271#0"/>
    <trip id="381" depart="190.50" from="5670756#2" to="1136699159#0"/>
    <trip id="382" depart="191.00" from="446864091#5" to="847931436#9"/>
    <trip id="383" depart="191.50" from="34080062#4" to="533472943#1"/>
    <trip id="384" depart="192.00" from="-804521765#2" to="963575586#0"/>
    <trip id="385" depart="192.50" from="46348767#0" to="1229513717#0"/>
    <trip id="386" depart="193.00" from="1034527688#0" to="451808492#2"/>
    <trip id="387" depart="193.50" from="450896752#0" to="-525656847#2"/>
    <trip id="388" depart="194.00" from="992132287" to="841720543"/>
    <trip id="389" depart="194.50" from="39513387#1" to="-68668526#4"/>
    <trip id="390" depart="195.00" from="5673591#0" to="420530113#0"/>
    <trip id="391" depart="195.50" from="5669742#0" to="420809412"/>
    <trip id="392" depart="196.00" from="129834316#3" to="5678368#0"/>
    <trip id="393" depart="196.50" from="968737541#3" to="1237326681#0"/>
    <trip id="394" depart="197.00" from="447018423#0" to="222258278#0"/>
    <trip id="395" depart="197.50" from="846035644#0" to="420809410#0"/>
    <trip id="396" depart="198.00" from="706833044#0" to="663634122#0"/>
    <trip id="397" depart="198.50" from="1306277592" to="5671711#1"/>
    <trip id="398" depart="199.00" from="24264070#0" to="848051758#0"/>
    <trip id="399" depart="199.50" from="420598349#0" to="5673073#5"/>
    <trip id="400" depart="200.00" from="1314051815" to="1329369155#0"/>
    <trip id="401" depart="200.50" from="46160153#0" to="993797882"/>
    <trip id="402" depart="201.00" from="420355077#0" to="1027181004#0"/>
    <trip id="403" depart="201.50" from="439842757#0" to="181375404#0"/>
    <trip id="404" depart="202.00" from="450807242#0" to="439933951#0"/>
    <trip id="405" depart="202.50" from="386211349#0" to="1337942884#0"/>
    <trip id="406" depart="203.00" from="1088320652#0" to="533472710"/>
    <trip id="407" depart="203.50" from="46116314#0" to="1218359635#0"/>
    <trip id="408" depart="204.00" from="5671314#4" to="-195743555#1"/>
    <trip id="409" depart="204.50" from="5670451#0" to="543902512#0"/>
    <trip id="410" depart="205.00" from="5672654#0" to="226040987#1"/>
    <trip id="411" depart="205.50" from="486010412#0" to="5673073#6"/>
    <trip id="412" depart="206.00" from="968737541#9" to="420520113#0"/>