<?xml version="1.0" encoding="UTF-8"?>
<additional><tlLogic id="11038072110" type="static" programID="0" offset="35"><phase duration="15" state="GGGGrrrrr" /><phase duration="3" state="yyyyrrrrr" /><phase duration="2" state="rrrrrrrrr" /><phase duration="15" state="rrrrGGGGG" /><phase duration="3" state="rrrryyyyy" /><phase duration="2" state="rrrrrrrrr" /></tlLogic><tlLogic id="12554607194" type="static" programID="0" offset="20"><phase duration="15" state="Grr" /><phase duration="3" state="yrr" /><phase duration="2" state="rrr" /><phase duration="15" state="rGG" /><phase duration="3" state="ryy" /><phase duration="2" state="rrr" /></tlLogic><tlLogic id="1431790464" type="static" programID="0" offset="14"><phase duration="15" state="GGGrrr" /><phase duration="3" state="yyyrrr" /><phase duration="2" state="rrrrrr" /><phase duration="15" state="rrrGGG" /><phase duration="3" state="rrryyy" /><phase duration="2" state="rrrrrr" /></tlLogic><tlLogic id="1431790465" type="static" programID="0" offset="14"><phase duration="15" state="GGGrrr" /><phase duration="3" state="yyyrrr" /><phase duration="2" state="rrrrrr" /><phase duration="15" state="rrrGGG" /><phase duration="3" state="rrryyy" /><phase duration="2" state="rrrrrr" /></tlLogic><tlLogic id="1692433919" type="static" programID="0" offset="5"><phase duration="15" state="GGGrrr" /><phase duration="3" state="yyyrrr" /><phase duration="2" state="rrrrrr" /><phase duration="15" state="rrrGGG" /><phase duration="3" state="rrryyy" /><phase duration="2" state="rrrrrr" /></tlLogic><tlLogic id="1692433928" type="static" programID="0" offset="17"><phase duration="15" state="GGGGrrrrr" /><phase duration="3" state="yyyyrrrrr" /><phase duration="2" state="rrrrrrrrr" /><phase duration="15" state="rrrrGGGGG" /><phase duration="3" state="rrrryyyyy" /><phase duration="2" state="rrrrrrrrr" /></tlLogic><tlLogic id="1692433932" type="static" programID="0" offset="29"><phase duration="15" state="GGrr" /><phase duration="3" state="yyrr" /><phase duration="2" state="rrrr" /><phase duration="15" state="rrGG" /><phase duration="3" state="rryy" /><phase duration="2" state="rrrr" /></tlLogic><tlLogic id="1692433935" type="static" programID="0" offset="16"><phase duration="15" state="GGrr" /><phase duration="3" state="yyrr" /><phase duration="2" state="rrrr" /><phase duration="15" state="rrGG" /><phase duration="3" state="rryy" /><phase duration="2" state="rrrr" /></tlLogic><tlLogic id="1692433936" type="static" programID="0" offset="25"><phase duration="15" state="GGrr" /><phase duration="3" state="yyrr" /><phase duration="2" state="rrrr" /><phase duration="15" state="rrGG" /><phase duration="3" state="rryy" /><phase duration="2" state="rrrr" /></tlLogic><tlLogic id="1692433938" type="static" programID="0" offset="1"><phase duration="15" state="GGrr" /><phase duration="3" state="yyrr" /><phase duration="2" state="rrrr" /><phase duration="15" state="rrGG" /><phase duration="3" state="rryy" /><phase duration="2" state="rrrr" /></tlLogic><tlLogic id="1692433940" type="static" programID="0" offset="3"><phase duration="15" state="GGrr" /><phase duration="3" state="yyrr" /><phase duration="2" state="rrrr" /><phase duration="15" state="rrGG" /><phase duration="3" state="rryy" /><phase duration="2" state="rrrr" /></tlLogic><tlLogic id="1692433941" type="static" programID="0" offset="7"><phase duration="15" state="GGrr" /><phase duration="3" state="yyrr" /><phase duration="2" state="rrrr" /><phase duration="15" state="rrGG" /><phase duration="3" state="rryy" /><phase duration="2" state="rrrr" /></tlLogic><tlLogic id="1773084402" type="static" programID="0" offset="35"><phase duration="15" state="GGGGGrrrrrr" /><phase duration="3" state="yyyyyrrrrrr" /><phase duration="2" state="rrrrrrrrrrr" /><phase duration="15" state="rrrrrGGGGGG" /><phase duration="3" state="rrrrryyyyyy" /><phase duration="2" state="rrrrrrrrrrr" /></tlLogic><tlLogic id="2324482224" type="static" programID="0" offset="35"><phase duration="15" state="GGGrrr" /><phase duration="3" state="yyyrrr" /><phase duration="2" state="rrrrrr" /><phase duration="15" state="rrrGGG" /><phase duration="3" state="rrryyy" /><phase duration="2" state="rrrrrr" /></tlLogic><tlLogic id="2340051732" type="static" programID="0" offset="17"><phase duration="15" state="GGrr" /><phase duration="3" state="yyrr" /><phase duration="2" state="rrrr" /><phase duration="15" state="rrGG" /><phase duration="3" state="rryy" /><phase duration="2" state="rrrr" /></tlLogic><tlLogic id="246650840" type="static" programID="0" offset="32"><phase duration="15" state="GGrrr" /><phase duration="3" state="yyrrr" /><phase duration="2" state="rrrrr" /><phase duration="15" state="rrGGG" /><phase duration="3" state="rryyy" /><phase duration="2" state="rrrrr" /></tlLogic><tlLogic id="248607283" type="static" programID="0" offset="0"><phase duration="15" state="GGGrrr" /><phase duration="3" state="yyyrrr" /><phase duration="2" state="rrrrrr" /><phase duration="15" state="rrrGGG" /><phase duration="3" state="rrryyy" /><phase duration="2" state="rrrrrr" /></tlLogic><tlLogic id="272194254" type="static" programID="0" offset="29"><phase duration="15" state="GGGrrr" /><phase duration="3" state="yyyrrr" /><phase duration="2" state="rrrrrr" /><phase duration="15" state="rrrGGG" /><phase duration="3" state="rrryyy" /><phase duration="2" state="rrrrrr" /></tlLogic><tlLogic id="272195270" type="static" programID="0" offset="30"><phase duration="15" state="GGGGrrrr" /><phase duration="3" state="yyyyrrrr" /><phase duration="2" state="rrrrrrrr" /><phase duration="15" state="rrrrGGGG" /><phase duration="3" state="rrrryyyy" /><phase duration="2" state="rrrrrrrr" /></tlLogic><tlLogic id="272195271" type="static" programID="0" offset="4"><phase duration="15" state="GGGGGGrrrrrr" /><phase duration="3" state="yyyyyyrrrrrr" /><phase duration="2" state="rrrrrrrrrrrr" /><phase duration="15" state="rrrrrrGGGGGG" /><phase duration="3" state="rrrrrryyyyyy" /><phase duration="2" state="rrrrrrrrrrrr" /></tlLogic><tlLogic id="279151954" type="static" programID="0" offset="25"><phase duration="15" state="GGGGGrrrrr" /><phase duration="3" state="yyyyyrrrrr" /><phase duration="2" state="rrrrrrrrrr" /><phase duration="15" state="rrrrrGGGGG" /><phase duration="3" state="rrrrryyyyy" /><phase duration="2" state="rrrrrrrrrr" /></tlLogic><tlLogic id="2821304136" type="static" programID="0" offset="23"><phase duration="15" state="GGrr" /><phase duration="3" state="yyrr" /><phase duration="2" state="rrrr" /><phase duration="15" state="rrGG" /><phase duration="3" state="rryy" /><phase duration="2" state="rrrr" /></tlLogic><tlLogic id="2821304137" type="static" programID="0" offset="33"><phase duration="15" state="GGGGrrrrr" /><phase duration="3" state="yyyyrrrrr" /><phase duration="2" state="rrrrrrrrr" /><phase duration="15" state="rrrrGGGGG" /><phase duration="3" state="rrrryyyyy" /><phase duration="2" state="rrrrrrrrr" /></tlLogic><tlLogic id="2821304138" type="static" programID="0" offset="26"><phase duration="15" state="GGGrrr" /><phase duration="3" state="yyyrrr" /><phase duration="2" state="rrrrrr" /><phase duration="15" state="rrrGGG" /><phase duration="3" state="rrryyy" /><phase duration="2" state="rrrrrr" /></tlLogic><tlLogic id="3212472963" type="static" programID="0" offset="13"><phase duration="15" state="Grr" /><phase duration="3" state="yrr" /><phase duration="2" state="rrr" /><phase duration="15" state="rGG" /><phase duration="3" state="ryy" /><phase duration="2" state="rrr" /></tlLogic><tlLogic id="3350498747" type="static" programID="0" offset="39"><phase duration="15" state="GGGGGrrrrrr" /><phase duration="3" state="yyyyyrrrrrr" /><phase duration="2" state="rrrrrrrrrrr" /><phase duration="15" state="rrrrrGGGGGG" /><phase duration="3" state="rrrrryyyyyy" /><phase duration="2" state="rrrrrrrrrrr" /></tlLogic><tlLogic id="3567807957" type="static" programID="0" offset="6"><phase duration="15" state="GGrr" /><phase duration="3" state="yyrr" /><phase duration="2" state="rrrr" /><phase duration="15" state="rrGG" /><phase duration="3" state="rryy" /><phase duration="2" state="rrrr" /></tlLogic><tlLogic id="3584752508" type="static" programID="0" offset="22"><phase duration="15" state="GGrr" /><phase duration="3" state="yyrr" /><phase duration="2" state="rrrr" /><phase duration="15" state="rrGG" /><phase duration="3" state="rryy" /><phase duration="2" state="rrrr" /></tlLogic><tlLogic id="3630219668" type="static" programID="0" offset="17"><phase duration="15" state="Gr" /><phase duration="3" state="yr" /><phase duration="2" state="rr" /><phase duration="15" state="rG" /><phase duration="3" state="ry" /><phase duration="2" state="rr" /></tlLogic><tlLogic id="3786901738" type="static" programID="0" offset="1"><phase duration="15" state="GGrrr" /><phase duration="3" state="yyrrr" /><phase duration="2" state="rrrrr" /><phase duration="15" state="rrGGG" /><phase duration="3" state="rryyy" /><phase duration="2" state="rrrrr" /></tlLogic><tlLogic id="4012724171" type="static" programID="0" offset="33"><phase duration="15" state="GGGGrrrr" /><phase duration="3" state="yyyyrrrr" /><phase duration="2" state="rrrrrrrr" /><phase duration="15" state="rrrrGGGG" /><phase duration="3" state="rrrryyyy" /><phase duration="2" state="rrrrrrrr" /></tlLogic><tlLogic id="4121409402" type="static" programID="0" offset="0"><phase duration="15" state="GGGrrr" /><phase duration="3" state="yyyrrr" /><phase duration="2" state="rrrrrr" /><phase duration="15" state="rrrGGG" /><phase duration="3" state="rrryyy" /><phase duration="2" state="rrrrrr" /></tlLogic><tlLogic id="4149936235" type="static" programID="0" offset="17"><phase duration="15" state="GGGrrrr" /><phase duration="3" state="yyyrrrr" /><phase duration="2" state="rrrrrrr" /><phase duration="15" state="rrrGGGG" /><phase duration="3" state="rrryyyy" /><phase duration="2" state="rrrrrrr" /></tlLogic><tlLogic id="42421889" type="static" programID="0" offset="6"><phase duration="15" state="GGGrrr" /><phase duration="3" state="yyyrrr" /><phase duration="2" state="rrrrrr" /><phase duration="15" state="rrrGGG" /><phase duration="3" state="rrryyy" /><phase duration="2" state="rrrrrr" /></tlLogic><tlLogic id="42422026" type="static" programID="0" offset="25"><phase duration="15" state="GGGGrrrrr" /><phase duration="3" state="yyyyrrrrr" /><phase duration="2" state="rrrrrrrrr" /><phase duration="15" state="rrrrGGGGG" /><phase duration="3" state="rrrryyyyy" /><phase duration="2" state="rrrrrrrrr" /></tlLogic><tlLogic id="42422035" type="static" programID="0" offset="2"><phase duration="15" state="GGGGGrrrrr" /><phase duration="3" state="yyyyyrrrrr" /><phase duration="2" state="rrrrrrrrrr" /><phase duration="15" state="rrrrrGGGGG" /><phase duration="3" state="rrrrryyyyy" /><phase duration="2" state="rrrrrrrrrr" /></tlLogic><tlLogic id="42422038" type="static" programID="0" offset="23"><phase duration="15" state="GGrrr" /><phase duration="3" state="yyrrr" /><phase duration="2" state="rrrrr" /><phase duration="15" state="rrGGG" /><phase duration="3" state="rryyy" /><phase duration="2" state="rrrrr" /></tlLogic><tlLogic id="42422042" type="static" programID="0" offset="12"><phase duration="15" state="GGGGrrrr" /><phase duration="3" state="yyyyrrrr" /><phase duration="2" state="rrrrrrrr" /><phase duration="15" state="rrrrGGGG" /><phase duration="3" state="rrrryyyy" /><phase duration="2" state="rrrrrrrr" /></tlLogic><tlLogic id="42424408" type="static" programID="0" offset="28"><phase duration="15" state="GGGGGGrrrrrrr" /><phase duration="3" state="yyyyyyrrrrrrr" /><phase duration="2" state="rrrrrrrrrrrrr" /><phase duration="15" state="rrrrrrGGGGGGG" /><phase duration="3" state="rrrrrryyyyyyy" /><phase duration="2" state="rrrrrrrrrrrrr" /></tlLogic><tlLogic id="42424610" type="static" programID="0" offset="6"><phase duration="15" state="GGGGGrrrrrr" /><phase duration="3" state="yyyyyrrrrrr" /><phase duration="2" state="rrrrrrrrrrr" /><phase duration="15" state="rrrrrGGGGGG" /><phase duration="3" state="rrrrryyyyyy" /><phase duration="2" state="rrrrrrrrrrr" /></tlLogic><tlLogic id="42424864" type="static" programID="0" offset="16"><phase duration="15" state="Grr" /><phase duration="3" state="yrr" /><phase duration="2" state="rrr" /><phase duration="15" state="rGG" /><phase duration="3" state="ryy" /><phase duration="2" state="rrr" /></tlLogic><tlLogic id="42425955" type="static" programID="0" offset="31"><phase duration="15" state="GGGrrrr" /><phase duration="3" state="yyyrrrr" /><phase duration="2" state="rrrrrrr" /><phase duration="15" state="rrrGGGG" /><phase duration="3" state="rrryyyy" /><phase duration="2" state="rrrrrrr" /></tlLogic><tlLogic id="42426747" type="static" programID="0" offset="13"><phase duration="15" state="GGGGGrrrrr" /><phase duration="3" state="yyyyyrrrrr" /><phase duration="2" state="rrrrrrrrrr" /><phase duration="15" state="rrrrrGGGGG" /><phase duration="3" state="rrrrryyyyy" /><phase duration="2" state="rrrrrrrrrr" /></tlLogic><tlLogic id="42427242" type="static" programID="0" offset="34"><phase duration="15" state="GGGrrr" /><phase duration="3" state="yyyrrr" /><phase duration="2" state="rrrrrr" /><phase duration="15" state="rrrGGG" /><phase duration="3" state="rrryyy" /><phase duration="2" state="rrrrrr" /></tlLogic><tlLogic id="42427290" type="static" programID="0" offset="0"><phase duration="15" state="Grr" /><phase duration="3" state="yrr" /><phase duration="2" state="rrr" /><phase duration="15" state="rGG" /><phase duration="3" state="ryy" /><phase duration="2" state="rrr" /></tlLogic><tlLogic id="42427300" type="static" programID="0" offset="39"><phase duration="15" state="GGGGrrrrr" /><phase duration="3" state="yyyyrrrrr" /><phase duration="2" state="rrrrrrrrr" /><phase duration="15" state="rrrrGGGGG" /><phase duration="3" state="rrrryyyyy" /><phase duration="2" state="rrrrrrrrr" /></tlLogic><tlLogic id="42427305" type="static" programID="0" offset="29"><phase duration="15" state="GGrr" /><phase duration="3" state="yyrr" /><phase duration="2" state="rrrr" /><phase duration="15" state="rrGG" /><phase duration="3" state="rryy" /><phase duration="2" state="rrrr" /></tlLogic><tlLogic id="42427346" type="static" programID="0" offset="29"><phase duration="15" state="Grr" /><phase duration="3" state="yrr" /><phase duration="2" state="rrr" /><phase duration="15" state="rGG" /><phase duration="3" state="ryy" /><phase duration="2" state="rrr" /></tlLogic><tlLogic id="42427352" type="static" programID="0" offset="28"><phase duration="15" state="GGGrrr" /><phase duration="3" state="yyyrrr" /><phase duration="2" state="rrrrrr" /><phase duration="15" state="rrrGGG" /><phase duration="3" state="rrryyy" /><phase duration="2" state="rrrrrr" /></tlLogic><tlLogic id="42427374" type="static" programID="0" offset="32"><phase duration="15" state="GGGrrr" /><phase duration="3" state="yyyrrr" /><phase duration="2" state="rrrrrr" /><phase duration="15" state="rrrGGG" /><phase duration="3" state="rrryyy" /><phase duration="2" state="rrrrrr" /></tlLogic><tlLogic id="42427381" type="static" programID="0" offset="21"><phase duration="15" state="GGGrrrr" /><phase duration="3" state="yyyrrrr" /><phase duration="2" state="rrrrrrr" /><phase duration="15" state="rrrGGGG" /><phase duration="3" state="rrryyyy" /><phase duration="2" state="rrrrrrr" /></tlLogic><tlLogic id="42427423" type="static" programID="0" offset="34"><phase duration="15" state="GGGGrrrr" /><phase duration="3" state="yyyyrrrr" /><phase duration="2" state="rrrrrrrr" /><phase duration="15" state="rrrrGGGG" /><phase duration="3" state="rrrryyyy" /><phase duration="2" state="rrrrrrrr" /></tlLogic><tlLogic id="42427426" type="static" programID="0" offset="18"><phase duration="15" state="GGGGrrrr" /><phase duration="3" state="yyyyrrrr" /><phase duration="2" state="rrrrrrrr" /><phase duration="15" state="rrrrGGGG" /><phase duration="3" state="rrrryyyy" /><phase duration="2" state="rrrrrrrr" /></tlLogic><tlLogic id="42427477" type="static" programID="0" offset="38"><phase duration="15" state="GGGGrrrr" /><phase duration="3" state="yyyyrrrr" /><phase duration="2" state="rrrrrrrr" /><phase duration="15" state="rrrrGGGG" /><phase duration="3" state="rrrryyyy" /><phase duration="2" state="rrrrrrrr" /></tlLogic><tlLogic id="42427483" type="static" programID="0" offset="32"><phase duration="15" state="GGGGGrrrrr" /><phase duration="3" state="yyyyyrrrrr" /><phase duration="2" state="rrrrrrrrrr" /><phase duration="15" state="rrrrrGGGGG" /><phase duration="3" state="rrrrryyyyy" /><phase duration="2" state="rrrrrrrrrr" /></tlLogic><tlLogic id="42427742" type="static" programID="0" offset="1"><phase duration="15" state="GGGrrr" /><phase duration="3" state="yyyrrr" /><phase duration="2" state="rrrrrr" /><phase duration="15" state="rrrGGG" /><phase duration="3" state="rrryyy" /><phase duration="2" state="rrrrrr" /></tlLogic><tlLogic id="42427744" type="static" programID="0" offset="3"><phase duration="15" state="GGGGGGrrrrrr" /><phase duration="3" state="yyyyyyrrrrrr" /><phase duration="2" state="rrrrrrrrrrrr" /><phase duration="15" state="rrrrrrGGGGGG" /><phase duration="3" state="rrrrrryyyyyy" /><phase duration="2" state="rrrrrrrrrrrr" /></tlLogic><tlLogic id="42427786" type="static" programID="0" offset="13"><phase duration="15" state="GGrr" /><phase duration="3" state="yyrr" /><phase duration="2" state="rrrr" /><phase duration="15" state="rrGG" /><phase duration="3" state="rryy" /><phase duration="2" state="rrrr" /></tlLogic><tlLogic id="42427787" type="static" programID="0" offset="2"><phase duration="15" state="GGrr" /><phase duration="3" state="yyrr" /><phase duration="2" state="rrrr" /><phase duration="15" state="rrGG" /><phase duration="3" state="rryy" /><phase duration="2" state="rrrr" /></tlLogic><tlLogic id="42427797" type="static" programID="0" offset="0"><phase duration="15" state="GGGGrrrr" /><phase duration="3" state="yyyyrrrr" /><phase duration="2" state="rrrrrrrr" /><phase duration="15" state="rrrrGGGG" /><phase duration="3" state="rrrryyyy" /><phase duration="2" state="rrrrrrrr" /></tlLogic><tlLogic id="42427805" type="static" programID="0" offset="36"><phase duration="15" state="GGGrrrr" /><phase duration="3" state="yyyrrrr" /><phase duration="2" state="rrrrrrr" /><phase duration="15" state="rrrGGGG" /><phase duration="3" state="rrryyyy" /><phase duration="2" state="rrrrrrr" /></tlLogic><tlLogic id="42427812" type="static" programID="0" offset="3"><phase duration="15" state="GGGGrrrr" /><phase duration="3" state="yyyyrrrr" /><phase duration="2" state="rrrrrrrr" /><phase duration="15" state="rrrrGGGG" /><phase duration="3" state="rrrryyyy" /><phase duration="2" state="rrrrrrrr" /></tlLogic><tlLogic id="42428170" type="static" programID="0" offset="10"><phase duration="15" state="Gr" /><phase duration="3" state="yr" /><phase duration="2" state="rr" /><phase duration="15" state="rG" /><phase duration="3" state="ry" /><phase duration="2" state="rr" /></tlLogic><tlLogic id="42428174" type="static" programID="0" offset="32"><phase duration="15" state="Gr" /><phase duration="3" state="yr" /><phase duration="2" state="rr" /><phase duration="15" state="rG" /><phase duration="3" state="ry" /><phase duration="2" state="rr" /></tlLogic><tlLogic id="42428179" type="static" programID="0" offset="39"><phase duration="15" state="Grr" /><phase duration="3" state="yrr" /><phase duration="2" state="rrr" /><phase duration="15" state="rGG" /><phase duration="3" state="ryy" /><phase duration="2" state="rrr" /></tlLogic><tlLogic id="42428198" type="static" programID="0" offset="14"><phase duration="15" state="GGrr" /><phase duration="3" state="yyrr" /><phase duration="2" state="rrrr" /><phase duration="15" state="rrGG" /><phase duration="3" state="rryy" /><phase duration="2" state="rrrr" /></tlLogic><tlLogic id="42428206" type="static" programID="0" offset="26"><phase duration="15" state="GGrr" /><phase duration="3" state="yyrr" /><phase duration="2" state="rrrr" /><phase duration="15" state="rrGG" /><phase duration="3" state="rryy" /><phase duration="2" state="rrrr" /></tlLogic><tlLogic id="42428220" type="static" programID="0" offset="18"><phase duration="15" state="Grr" /><phase duration="3" state="yrr" /><phase duration="2" state="rrr" /><phase duration="15" state="rGG" /><phase duration="3" state="ryy" /><phase duration="2" state="rrr" /></tlLogic><tlLogic id="42428223" type="static" programID="0" offset="36"><phase duration="15" state="GGrr" /><phase duration="3" state="yyrr" /><phase duration="2" state="rrrr" /><phase duration="15" state="rrGG" /><phase duration="3" state="rryy" /><phase duration="2" state="rrrr" /></tlLogic><tlLogic id="42428227" type="static" programID="0" offset="10"><phase duration="15" state="GGrr" /><phase duration="3" state="yyrr" /><phase duration="2" state="rrrr" /><phase duration="15" state="rrGG" /><phase duration="3" state="rryy" /><phase duration="2" state="rrrr" /></tlLogic><tlLogic id="42428232" type="static" programID="0" offset="12"><phase duration="15" state="GGrr" /><phase duration="3" state="yyrr" /><phase duration="2" state="rrrr" /><phase duration="15" state="rrGG" /><phase duration="3" state="rryy" /><phase duration="2" state="rrrr" /></tlLogic><tlLogic id="42428368" type="static" programID="0" offset="28"><phase duration="15" state="GGrr" /><phase duration="3" state="yyrr" /><phase duration="2" state="rrrr" /><phase duration="15" state="rrGG" /><phase duration="3" state="rryy" /><phase duration="2" state="rrrr" /></tlLogic><tlLogic id="42428371" type="static" programID="0" offset="18"><phase duration="15" state="Grr" /><phase duration="3" state="yrr" /><phase duration="2" state="rrr" /><phase duration="15" state="rGG" /><phase duration="3" state="ryy" /><phase duration="2" state="rrr" /></tlLogic><tlLogic id="42428374" type="static" programID="0" offset="18"><phase duration="15" state="GGrrr" /><phase duration="3" state="yyrrr" /><phase duration="2" state="rrrrr" /><phase duration="15" state="rrGGG" /><phase duration="3" state="rryyy" /><phase duration="2" state="rrrrr" /></tlLogic><tlLogic id="42428385" type="static" programID="0" offset="16"><phase duration="15" state="GGGrrrr" /><phase duration="3" state="yyyrrrr" /><phase duration="2" state="rrrrrrr" /><phase duration="15" state="rrrGGGG" /><phase duration="3" state="rrryyyy" /><phase duration="2" state="rrrrrrr" /></tlLogic><tlLogic id="42428402" type="static" programID="0" offset="10"><phase duration="15" state="GGGrrrr" /><phase duration="3" state="yyyrrrr" /><phase duration="2" state="rrrrrrr" /><phase duration="15" state="rrrGGGG" /><phase duration="3" state="rrryyyy" /><phase duration="2" state="rrrrrrr" /></tlLogic><tlLogic id="42428405" type="static" programID="0" offset="20"><phase duration="15" state="GGGrrr" /><phase duration="3" state="yyyrrr" /><phase duration="2" state="rrrrrr" /><phase duration="15" state="rrrGGG" /><phase duration="3" state="rrryyy" /><phase duration="2" state="rrrrrr" /></tlLogic><tlLogic id="42428408" type="static" programID="0" offset="7"><phase duration="15" state="Grr" /><phase duration="3" state="yrr" /><phase duration="2" state="rrr" /><phase duration="15" state="rGG" /><phase duration="3" state="ryy" /><phase duration="2" state="rrr" /></tlLogic><tlLogic id="42428411" type="static" programID="0" offset="7"><phase duration="15" state="GGGGGrrrrr" /><phase duration="3" state="yyyyyrrrrr" /><phase duration="2" state="rrrrrrrrrr" /><phase duration="15" state="rrrrrGGGGG" /><phase duration="3" state="rrrrryyyyy" /><phase duration="2" state="rrrrrrrrrr" /></tlLogic><tlLogic id="42428420" type="static" programID="0" offset="30"><phase duration="15" state="GGrrr" /><phase duration="3" state="yyrrr" /><phase duration="2" state="rrrrr" /><phase duration="15" state="rrGGG" /><phase duration="3" state="rryyy" /><phase duration="2" state="rrrrr" /></tlLogic><tlLogic id="42428425" type="static" programID="0" offset="12"><phase duration="15" state="GGrrr" /><phase duration="3" state="yyrrr" /><phase duration="2" state="rrrrr" /><phase duration="15" state="rrGGG" /><phase duration="3" state="rryyy" /><phase duration="2" state="rrrrr" /></tlLogic><tlLogic id="42428428" type="static" programID="0" offset="4"><phase duration="15" state="GGrrr" /><phase duration="3" state="yyrrr" /><phase duration="2" state="rrrrr" /><phase duration="15" state="rrGGG" /><phase duration="3" state="rryyy" /><phase duration="2" state="rrrrr" /></tlLogic><tlLogic id="42428433" type="static" programID="0" offset="1"><phase duration="15" state="GGGGGGrrrrrr" /><phase duration="3" state="yyyyyyrrrrrr" /><phase duration="2" state="rrrrrrrrrrrr" /><phase duration="15" state="rrrrrrGGGGGG" /><phase duration="3" state="rrrrrryyyyyy" /><phase duration="2" state="rrrrrrrrrrrr" /></tlLogic><tlLogic id="42428434" type="static" programID="0" offset="7"><phase duration="15" state="GGGGrrrr" /><phase duration="3" state="yyyyrrrr" /><phase duration="2" state="rrrrrrrr" /><phase duration="15" state="rrrrGGGG" /><phase duration="3" state="rrrryyyy" /><phase duration="2" state="rrrrrrrr" /></tlLogic><tlLogic id="42428436" type="static" programID="0" offset="10"><phase duration="15" state="GGrrr" /><phase duration="3" state="yyrrr" /><phase duration="2" state="rrrrr" /><phase duration="15" state="rrGGG" /><phase duration="3" state="rryyy" /><phase duration="2" state="rrrrr" /></tlLogic><tlLogic id="42428441" type="static" programID="0" offset="20"><phase duration="15" state="GGrrr" /><phase duration="3" state="yyrrr" /><phase duration="2" state="rrrrr" /><phase duration="15" state="rrGGG" /><phase duration="3" state="rryyy" /><phase duration="2" state="rrrrr" /></tlLogic><tlLogic id="42428444" type="static" programID="0" offset="9"><phase duration="15" state="GGrrr" /><phase duration="3" state="yyrrr" /><phase duration="2" state="rrrrr" /><phase duration="15" state="rrGGG" /><phase duration="3" state="rryyy" /><phase duration="2" state="rrrrr" /></tlLogic><tlLogic id="42428454" type="static" programID="0" offset="23"><phase duration="15" state="Grr" /><phase duration="3" state="yrr" /><phase duration="2" state="rrr" /><phase duration="15" state="rGG" /><phase duration="3" state="ryy" /><phase duration="2" state="rrr" /></tlLogic><tlLogic id="42428458" type="static" programID="0" offset="18"><phase duration="15" state="GGrrr" /><phase duration="3" state="yyrrr" /><phase duration="2" state="rrrrr" /><phase duration="15" state="rrGGG" /><phase duration="3" state="rryyy" /><phase duration="2" state="rrrrr" /></tlLogic><tlLogic id="42428460" type="static" programID="0" offset="9"><phase duration="15" state="GGrrr" /><phase duration="3" state="yyrrr" /><phase duration="2" state="rrrrr" /><phase duration="15" state="rrGGG" /><phase duration="3" state="rryyy" /><phase duration="2" state="rrrrr" /></tlLogic><tlLogic id="42428464" type="static" programID="0" offset="30"><phase duration="15" state="Grr" /><phase duration="3" state="yrr" /><phase duration="2" state="rrr" /><phase duration="15" state="rGG" /><phase duration="3" state="ryy" /><phase duration="2" state="rrr" /></tlLogic><tlLogic id="42428468" type="static" programID="0" offset="31"><phase duration="15" state="Grr" /><phase duration="3" state="yrr" /><phase duration="2" state="rrr" /><phase duration="15" state="rGG" /><phase duration="3" state="ryy" /><phase duration="2" state="rrr" /></tlLogic><tlLogic id="42428471" type="static" programID="0" offset="3"><phase duration="15" state="GGrrr" /><phase duration="3" state="yyrrr" /><phase duration="2" state="rrrrr" /><phase duration="15" state="rrGGG" /><phase duration="3" state="rryyy" /><phase duration="2" state="rrrrr" /></tlLogic><tlLogic id="42428473" type="static" programID="0" offset="30"><phase duration="15" state="GGGrrr" /><phase duration="3" state="yyyrrr" /><phase duration="2" state="rrrrrr" /><phase duration="15" state="rrrGGG" /><phase duration="3" state="rrryyy" /><phase duration="2" state="rrrrrr" /></tlLogic><tlLogic id="42428476" type="static" programID="0" offset="32"><phase duration="15" state="GGrrr" /><phase duration="3" state="yyrrr" /><phase duration="2" state="rrrrr" /><phase duration="15" state="rrGGG" /><phase duration="3" state="rryyy" /><phase duration="2" state="rrrrr" /></tlLogic><tlLogic id="42428483" type="static" programID="0" offset="35"><phase duration="15" state="Grr" /><phase duration="3" state="yrr" /><phase duration="2" state="rrr" /><phase duration="15" state="rGG" /><phase duration="3" state="ryy" /><phase duration="2" state="rrr" /></tlLogic><tlLogic id="42428489" type="static" programID="0" offset="30"><phase duration="15" state="GGrrr" /><phase duration="3" state="yyrrr" /><phase duration="2" state="rrrrr" /><phase duration="15" state="rrGGG" /><phase duration="3" state="rryyy" /><phase duration="2" state="rrrrr" /></tlLogic><tlLogic id="42428491" type="static" programID="0" offset="26"><phase duration="15" state="GGrrr" /><phase duration="3" state="yyrrr" /><phase duration="2" state="rrrrr" /><phase duration="15" state="rrGGG" /><phase duration="3" state="rryyy" /><phase duration="2" state="rrrrr" /></tlLogic><tlLogic id="42428524" type="static" programID="0" offset="30"><phase duration="15" state="Gr" /><phase duration="3" state="yr" /><phase duration="2" state="rr" /><phase duration="15" state="rG" /><phase duration="3" state="ry" /><phase duration="2" state="rr" /></tlLogic><tlLogic id="42428529" type="static" programID="0" offset="36"><phase duration="15" state="Gr" /><phase duration="3" state="yr" /><phase duration="2" state="rr" /><phase duration="15" state="rG" /><phase duration="3" state="ry" /><phase duration="2" state="rr" /></tlLogic><tlLogic id="42429373" type="static" programID="0" offset="5"><phase duration="15" state="GGrrr" /><phase duration="3" state="yyrrr" /><phase duration="2" state="rrrrr" /><phase duration="15" state="rrGGG" /><phase duration="3" state="rryyy" /><phase duration="2" state="rrrrr" /></tlLogic><tlLogi