<?xml version="1.0" encoding="UTF-8"?>
<additional><tlLogic id="11038072110" type="static" programID="1" offset="10"><phase duration="2" state="rrrrrryyy" /><phase duration="2" state="rrrrrrrrr" /><phase duration="40" state="GggGGgrrr" /><phase duration="1" state="yyyyyyrrr" /><phase duration="2" state="rrrrrrrrr" /><phase duration="40" state="rrrrrrGGG" /></tlLogic><tlLogic id="12554607194" type="static" programID="1" offset="29"><phase duration="5" state="yyy" /><phase duration="4" state="rrr" /><phase duration="84" state="GGG" /></tlLogic><tlLogic id="1431790464" type="static" programID="1" offset="9"><phase duration="2" state="rrryyy" /><phase duration="2" state="rrrrrr" /><phase duration="44" state="GGGrrr" /><phase duration="2" state="yyyrrr" /><phase duration="2" state="rrrrrr" /><phase duration="42" state="rrrGGG" /></tlLogic><tlLogic id="1431790465" type="static" programID="1" offset="0"><phase duration="41" state="rrGGGG" /><phase duration="4" state="rryyyy" /><phase duration="2" state="rrrrrr" /><phase duration="42" state="GGrrrr" /><phase duration="5" state="yyrrrr" /></tlLogic><tlLogic id="1692433919" type="static" programID="1" offset="13"><phase duration="2" state="yyyyrr" /><phase duration="2" state="rrrrrr" /><phase duration="42" state="rrrrGG" /><phase duration="3" state="rrrryy" /><phase duration="2" state="rrrrrr" /><phase duration="44" state="GGGGrr" /></tlLogic><tlLogic id="1692433928" type="static" programID="1" offset="33"><phase duration="41" state="rrrrrrGGG" /><phase duration="3" state="rrrrrryyy" /><phase duration="2" state="rrrrrrrrr" /><phase duration="43" state="GggGGgrrr" /><phase duration="4" state="yyyyyyrrr" /></tlLogic><tlLogic id="1692433932" type="static" programID="1" offset="33"><phase duration="4" state="yyrr" /><phase duration="2" state="rrrr" /><phase duration="41" state="rrGG" /><phase duration="1" state="rryy" /><phase duration="2" state="rrrr" /><phase duration="40" state="GGrr" /></tlLogic><tlLogic id="1692433935" type="static" programID="1" offset="10"><phase duration="2" state="rryy" /><phase duration="2" state="rrrr" /><phase duration="42" state="GGrr" /><phase duration="5" state="yyrr" /><phase duration="2" state="rrrr" /><phase duration="40" state="rrGG" /></tlLogic><tlLogic id="1692433936" type="static" programID="1" offset="7"><phase duration="43" state="GGrr" /><phase duration="1" state="yyrr" /><phase duration="2" state="rrrr" /><phase duration="40" state="rrGG" /><phase duration="3" state="rryy" /></tlLogic><tlLogic id="1692433938" type="static" programID="1" offset="6"><phase duration="43" state="rrGG" /><phase duration="2" state="rryy" /><phase duration="2" state="rrrr" /><phase duration="40" state="GGrr" /><phase duration="4" state="yyrr" /></tlLogic><tlLogic id="1692433940" type="static" programID="1" offset="1"><phase duration="42" state="rrGG" /><phase duration="5" state="rryy" /><phase duration="2" state="rrrr" /><phase duration="42" state="GGrr" /><phase duration="5" state="yyrr" /></tlLogic><tlLogic id="1692433941" type="static" programID="1" offset="24"><phase duration="1" state="yyrr" /><phase duration="2" state="rrrr" /><phase duration="42" state="rrGG" /><phase duration="4" state="rryy" /><phase duration="2" state="rrrr" /><phase duration="40" state="GGrr" /></tlLogic><tlLogic id="1773084402" type="static" programID="1" offset="41"><phase duration="4" state="GGggyyyyrrr" /><phase duration="2" state="rrrrrrrrrrr" /><phase duration="4" state="GGGGrrrrrrr" /><phase duration="4" state="yyyyrrrrrrr" /><phase duration="2" state="rrrrrrrrrrr" /><phase duration="39" state="rrrrrrrrGGG" /><phase duration="4" state="rrrrrrrryyy" /><phase duration="2" state="rrrrrrrrrrr" /><phase duration="36" state="GGggGGGgrrr" /></tlLogic><tlLogic id="2324482224" type="static" programID="1" offset="24"><phase duration="5" state="rrrrrr" /><phase duration="82" state="GggGGg" /><phase duration="4" state="yyyyyy" /></tlLogic><tlLogic id="2340051732" type="static" programID="1" offset="32"><phase duration="4" state="rrrr" /><phase duration="81" state="GgGg" /><phase duration="7" state="yyyy" /></tlLogic><tlLogic id="246650840" type="static" programID="1" offset="39"><phase duration="5" state="yyyyy" /><phase duration="6" state="rrrrr" /><phase duration="81" state="GGGGG" /></tlLogic><tlLogic id="248607283" type="static" programID="1" offset="39"><phase duration="4" state="yyrrrr" /><phase duration="2" state="rrrrrr" /><phase duration="26" state="rrrrGG" /><phase duration="7" state="rrrryy" /><phase duration="2" state="rrrrrr" /><phase duration="24" state="rrGGrr" /><phase duration="3" state="rryyrr" /><phase duration="2" state="rrrrrr" /><phase duration="27" state="GGrrrr" /></tlLogic><tlLogic id="272194254" type="static" programID="1" offset="21"><phase duration="28" state="GGrrrr" /><phase duration="1" state="yyrrrr" /><phase duration="2" state="rrrrrr" /><phase duration="29" state="rrrrGG" /><phase duration="5" state="rrrryy" /><phase duration="2" state="rrrrrr" /><phase duration="28" state="rrGGrr" /><phase duration="5" state="rryyrr" /></tlLogic><tlLogic id="272195270" type="static" programID="1" offset="54"><phase duration="1" state="rrrrryyy" /><phase duration="2" state="rrrrrrrr" /><phase duration="42" state="GGGGGrrr" /><phase duration="2" state="yyyyyrrr" /><phase duration="2" state="rrrrrrrr" /><phase duration="42" state="rrrrrGGG" /></tlLogic><tlLogic id="272195271" type="static" programID="1" offset="32"><phase duration="1" state="rrrrrGggyyyy" /><phase duration="2" state="rrrrrrrrrrrr" /><phase duration="7" state="rrrrrGGGrrrr" /><phase duration="4" state="rrrrryyyrrrr" /><phase duration="2" state="rrrrrrrrrrrr" /><phase duration="36" state="GGGGGrrrrrrr" /><phase duration="2" state="yyyyyrrrrrrr" /><phase duration="2" state="rrrrrrrrrrrr" /><phase duration="39" state="rrrrrGggGGGg" /></tlLogic><tlLogic id="279151954" type="static" programID="1" offset="14"><phase duration="5" state="rrrryyyGrr" /><phase duration="2" state="rrrrrrrrrr" /><phase duration="43" state="GGggrrrGGg" /><phase duration="1" state="yyyyrrrGyy" /><phase duration="2" state="rrrrrrrrrr" /><phase duration="44" state="rrrrGGgGrr" /></tlLogic><tlLogic id="2821304136" type="static" programID="1" offset="49"><phase duration="2" state="rrry" /><phase duration="2" state="rrrr" /><phase duration="43" state="GGGr" /><phase duration="1" state="yyyr" /><phase duration="2" state="rrrr" /><phase duration="41" state="rrrG" /></tlLogic><tlLogic id="2821304137" type="static" programID="1" offset="23"><phase duration="3" state="yyyyyrrrr" /><phase duration="2" state="rrrrrrrrr" /><phase duration="43" state="rrrrrGGGG" /><phase duration="3" state="rrrrryyyy" /><phase duration="2" state="rrrrrrrrr" /><phase duration="42" state="GGGGGrrrr" /></tlLogic><tlLogic id="2821304138" type="static" programID="1" offset="48"><phase duration="4" state="Gyyyrr" /><phase duration="2" state="rrrrrr" /><phase duration="43" state="GrrrGg" /><phase duration="2" state="Grrryy" /><phase duration="2" state="rrrrrr" /><phase duration="42" state="GGGGrr" /></tlLogic><tlLogic id="3212472963" type="static" programID="1" offset="2"><phase duration="3" state="rry" /><phase duration="2" state="rrr" /><phase duration="41" state="GGr" /><phase duration="3" state="yyr" /><phase duration="2" state="rrr" /><phase duration="43" state="rrG" /></tlLogic><tlLogic id="3350498747" type="static" programID="1" offset="55"><phase duration="3" state="rrryyyyGrrr" /><phase duration="2" state="rrrrrrrrrrr" /><phase duration="43" state="GGgrrrrGGgg" /><phase duration="2" state="yyyrrrrGyyy" /><phase duration="2" state="rrrrrrrrrrr" /><phase duration="43" state="rrrGGGgGrrr" /></tlLogic><tlLogic id="3567807957" type="static" programID="1" offset="44"><phase duration="4" state="rryy" /><phase duration="2" state="rrrr" /><phase duration="42" state="GGrr" /><phase duration="5" state="yyrr" /><phase duration="2" state="rrrr" /><phase duration="43" state="rrGG" /></tlLogic><tlLogic id="3584752508" type="static" programID="1" offset="34"><phase duration="3" state="rryy" /><phase duration="2" state="rrrr" /><phase duration="44" state="GGrr" /><phase duration="4" state="yyrr" /><phase duration="2" state="rrrr" /><phase duration="42" state="rrGG" /></tlLogic><tlLogic id="3630219668" type="static" programID="1" offset="57"><phase duration="1" state="ry" /><phase duration="2" state="rr" /><phase duration="40" state="Gr" /><phase duration="3" state="yr" /><phase duration="2" state="rr" /><phase duration="43" state="rG" /></tlLogic><tlLogic id="3786901738" type="static" programID="1" offset="3"><phase duration="3" state="rryyy" /><phase duration="2" state="rrrrr" /><phase duration="43" state="GGrrr" /><phase duration="5" state="yyrrr" /><phase duration="2" state="rrrrr" /><phase duration="41" state="rrGGG" /></tlLogic><tlLogic id="4012724171" type="static" programID="1" offset="14"><phase duration="4" state="yyyyyrrr" /><phase duration="2" state="rrrrrrrr" /><phase duration="40" state="rrrrrGGG" /><phase duration="5" state="rrrrryyy" /><phase duration="2" state="rrrrrrrr" /><phase duration="42" state="GGGGGrrr" /></tlLogic><tlLogic id="4121409402" type="static" programID="1" offset="48"><phase duration="3" state="yyyyrr" /><phase duration="2" state="rrrrrr" /><phase duration="40" state="rrrrGG" /><phase duration="3" state="rrrryy" /><phase duration="2" state="rrrrrr" /><phase duration="42" state="GgGgrr" /></tlLogic><tlLogic id="4149936235" type="static" programID="1" offset="30"><phase duration="1" state="rrrryyy" /><phase duration="2" state="rrrrrrr" /><phase duration="44" state="GGGGrrr" /><phase duration="3" state="yyyyrrr" /><phase duration="2" state="rrrrrrr" /><phase duration="40" state="rrrrGGG" /></tlLogic><tlLogic id="42421889" type="static" programID="1" offset="14"><phase duration="42" state="rrGGGG" /><phase duration="1" state="rryyyy" /><phase duration="2" state="rrrrrr" /><phase duration="43" state="GGrrrr" /><phase duration="4" state="yyrrrr" /></tlLogic><tlLogic id="42422026" type="static" programID="1" offset="22"><phase duration="3" state="yyyrrrGyy" /><phase duration="2" state="rrrrrrrrr" /><phase duration="43" state="rrrGGgGrr" /><phase duration="3" state="rrryyyGrr" /><phase duration="2" state="rrrrrrrrr" /><phase duration="42" state="GggrrrGGg" /></tlLogic><tlLogic id="42422035" type="static" programID="1" offset="26"><phase duration="1" state="rrrrrGyyyy" /><phase duration="2" state="rrrrrrrrrr" /><phase duration="44" state="GGGGgGrrrr" /><phase duration="3" state="yyyyyGrrrr" /><phase duration="2" state="rrrrrrrrrr" /><phase duration="42" state="rrrrrGGGGG" /></tlLogic><tlLogic id="42422038" type="static" programID="1" offset="35"><phase duration="42" state="rrGGG" /><phase duration="2" state="rrGyy" /><phase duration="2" state="rrrrr" /><phase duration="42" state="GgGrr" /><phase duration="2" state="yyGrr" /></tlLogic><tlLogic id="42422042" type="static" programID="1" offset="38"><phase duration="1" state="Grrryyyy" /><phase duration="2" state="rrrrrrrr" /><phase duration="44" state="GGGGrrrr" /><phase duration="5" state="Gyyyrrrr" /><phase duration="2" state="rrrrrrrr" /><phase duration="41" state="GrrrGGGg" /></tlLogic><tlLogic id="42424408" type="static" programID="1" offset="23"><phase duration="3" state="yyyyyyyrrrrrr" /><phase duration="2" state="rrrrrrrrrrrrr" /><phase duration="41" state="rrrrrrrGGGGGG" /><phase duration="2" state="rrrrrrryyyyyy" /><phase duration="2" state="rrrrrrrrrrrrr" /><phase duration="42" state="GGGGGGgrrrrrr" /></tlLogic><tlLogic id="42424610" type="static" programID="1" offset="41"><phase duration="4" state="yyyyyrrrrrr" /><phase duration="3" state="rrrrrrrrrrr" /><phase duration="40" state="rrrrGGGGGGG" /><phase duration="2" state="rrrrGyyyyyy" /><phase duration="2" state="rrrrrrrrrrr" /><phase duration="43" state="GGGGGrrrrrr" /></tlLogic><tlLogic id="42424864" type="static" programID="1" offset="37"><phase duration="3" state="rry" /><phase duration="2" state="rrr" /><phase duration="42" state="GGr" /><phase duration="3" state="yyr" /><phase duration="2" state="rrr" /><phase duration="44" state="rrG" /></tlLogic><tlLogic id="42425955" type="static" programID="1" offset="6"><phase duration="83" state="GGgGGgg" /><phase duration="4" state="yyyyyyy" /><phase duration="3" state="rrrrrrr" /></tlLogic><tlLogic id="42426747" type="static" programID="1" offset="49"><phase duration="4" state="rrrryyyrrr" /><phase duration="2" state="rrrrrrrrrr" /><phase duration="42" state="GGGgrrrGgg" /><phase duration="3" state="yyyyrrryyy" /><phase duration="2" state="rrrrrrrrrr" /><phase duration="43" state="rrrrGGGrrr" /></tlLogic><tlLogic id="42427242" type="static" programID="1" offset="52"><phase duration="40" state="GgGgrr" /><phase duration="4" state="yyyyrr" /><phase duration="2" state="rrrrrr" /><phase duration="41" state="rrrrGG" /><phase duration="2" state="rrrryy" /></tlLogic><tlLogic id="42427290" type="static" programID="1" offset="0"><phase duration="5" state="ryy" /><phase duration="2" state="rrr" /><phase duration="40" state="Grr" /><phase duration="3" state="yrr" /><phase duration="2" state="rrr" /><phase duration="40" state="rGG" /></tlLogic><tlLogic id="42427300" type="static" programID="1" offset="17"><phase duration="37" state="rrrGGGrrr" /><phase duration="1" state="rrryyyrrr" /><phase duration="2" state="rrrrrrrrr" /><phase duration="40" state="GGgrrrGgg" /><phase duration="1" state="yyyrrrGgg" /><phase duration="2" state="rrrrrrrrr" /><phase duration="8" state="rrrrrrGGG" /><phase duration="3" state="rrrrrryyy" /></tlLogic><tlLogic id="42427305" type="static" programID="1" offset="11"><phase duration="40" state="GGrr" /><phase duration="2" state="yyrr" /><phase duration="2" state="rrrr" /><phase duration="41" state="rrGG" /><phase duration="2" state="rryy" /></tlLogic><tlLogic id="42427346" type="static" programID="1" offset="24"><phase duration="4" state="yyy" /><phase duration="3" state="rrr" /><phase duration="83" state="GGG" /></tlLogic><tlLogic id="42427352" type="static" programID="1" offset="60"><phase duration="44" state="GgrrGg" /><phase duration="1" state="yyrryy" /><phase duration="2" state="rrrrrr" /><phase duration="40" state="rrGGrr" /><phase duration="3" state="rryyrr" /></tlLogic><tlLogic id="42427374" type="static" programID="1" offset="45"><phase duration="43" state="GGGGrr" /><phase duration="3" state="yyyyrr" /><phase duration="2" state="rrrrrr" /><phase duration="44" state="rrrrGG" /><phase duration="1" state="rrrryy" /></tlLogic><tlLogic id="42427381" type="static" programID="1" offset="24"><phase duration="3" state="yyyyrrr" /><phase duration="2" state="rrrrrrr" /><phase duration="42" state="rrrrGGG" /><phase duration="3" state="rrrryyy" /><phase duration="2" state="rrrrrrr" /><phase duration="44" state="GGGGrrr" /></tlLogic><tlLogic id="42427423" type="static" programID="1" offset="44"><phase duration="1" state="yyyyyrrr" /><phase duration="2" state="rrrrrrrr" /><phase duration="42" state="rrrrrGGG" /><phase duration="3" state="rrrrryyy" /><phase duration="2" state="rrrrrrrr" /><phase duration="41" state="GGGGGrrr" /></tlLogic><tlLogic id="42427426" type="static" programID="1" offset="6"><phase duration="41" state="rrrrrGGG" /><phase duration="2" state="rrrrryyy" /><phase duration="2" state="rrrrrrrr" /><phase duration="42" state="GGGGGrrr" /><phase duration="5" state="yyyyyrrr" /></tlLogic><tlLogic id="42427477" type="static" programID="1" offset="0"><phase duration="5" state="yyyyyrrr" /><phase duration="2" state="rrrrrrrr" /><phase duration="40" state="rrrrrGGG" /><phase duration="4" state="rrrrryyy" /><phase duration="2" state="rrrrrrrr" /><phase duration="40" state="GGGGGrrr" /></tlLogic><tlLogic id="42427483" type="static" programID="1" offset="42"><phase duration="42" state="GGGGGGrrrr" /><phase duration="4" state="yyyyyyrrrr" /><phase duration="2" state="rrrrrrrrrr" /><phase duration="40" state="rrrrrrGGGG" /><phase duration="1" state="rrrrrryyyy" /></tlLogic><tlLogic id="42427742" type="static" programID="1" offset="39"><phase duration="2" state="yyrryy" /><phase duration="2" state="rrrrrr" /><phase duration="44" state="rrGGrr" /><phase duration="5" state="rryyrr" /><phase duration="2" state="rrrrrr" /><phase duration="42" state="GgrrGg" /></tlLogic><tlLogic id="42427744" type="static" programID="1" offset="1"><phase duration="3" state="rrrryyyyGrrr" /><phase duration="2" state="rrrrrrrrrrrr" /><phase duration="44" state="GGggrrrrGGgg" /><phase duration="4" state="yyyyrrrrGyyy" /><phase duration="2" state="rrrrrrrrrrrr" /><phase duration="44" state="rrrrGGGgGrrr" /></tlLogic><tlLogic id="42427786" type="static" programID="1" offset="34"><phase duration="5" state="rryy" /><phase duration="2" state="rrrr" /><phase duration="40" state="GGrr" /><phase duration="4" state="yyrr" /><phase duration="2" state="rrrr" /><phase duration="41" state="rrGG" /></tlLogic><tlLogic id="42427787" type="static" programID="1" offset="31"><phase duration="1" state="rryy" /><phase duration="2" state="rrrr" /><phase duration="42" state="GGrr" /><phase duration="1" state="yyrr" /><phase duration="2" state="rrrr" /><phase duration="41" state="rrGG" /></tlLogic><tlLogic id="42427797" type="static" programID="1" offset="24"><phase duration="5" state="yyyrrrrr" /><phase duration="2" state="rrrrrrrr" /><phase duration="41" state="rrrGGGGG" /><phase duration="1" state="rrryyyyy" /><phase duration="2" state="rrrrrrrr" /><phase duration="42" state="GGGrrrrr" /></tlLogic><tlLogic id="42427805" type="static" programID="1" offset="50"><phase duration="2" state="yyyyrrr" /><phase duration="2" state="rrrrrrr" /><phase duration="43" state="rrrrGGG" /><phase duration="1" state="rrrryyy" /><phase duration="2" state="rrrrrrr" /><phase duration="43" state="GGGGrrr" /></tlLogic><tlLogic id="42427812" type="static" programID="1" offset="56"><phase duration="42" state="rrrGGGGG" /><phase duration="4" state="rrryyyyy" /><phase duration="2" state="rrrrrrrr" /><phase duration="43" state="GGGrrrrr" /><phase duration="4" state="yyyrrrrr" /></tlLogic><tlLogic id="42428170" type="static" programID="1" offset="12"><phase duration="4" state="yy" /><phase duration="7" state="rr" /><phase duration="80" state="GG" /></tlLogic><tlLogic id="42428174" type="static" programID="1" offset="5"><phase duration="1" state="yy" /><phase duration="7" state="rr" /><phase duration="83" state="GG" /></tlLogic><tlLogic id="42428179" type="static" programID="1" offset="2"><phase duration="2" state="ryr" /><phase duration="2" state="rrr" /><phase duration="29" state="rrG" /><phase duration="5" state="rry" /><phase duration="2" state="rrr" /><phase duration="25" state="Grr" /><phase duration="3" state="yrr" /><phase duration="2" state="rrr" /><phase duration="29" state="rGr" /></tlLogic><tlLogic id="42428198" type="static" programID="1" offset="37"><phase duration="1" state="rryy" /><phase duration="2" state="rrrr" /><phase duration="40" state="GGrr" /><phase duration="4" state="yyrr" /><phase duration="2" state="rrrr" /><phase duration="40" state="rrGG" /></tlLogic><tlLogic id="42428206" type="static" programID="1" offset="54"><phase duration="2" state="rrry" /><phase duration="2" state="rrrr" /><phase duration="41" state="GGGr" /><phase duration="2" state="yyyr" /><phase duration="2" state="rrrr" /><phase duration="43" state="rrrG" /></tlLogic><tlLogic id="42428220" type="static" programID="1" offset="14"><phase duration="41" state="rGG" /><phase duration="4" state="ryy" /><phase duration="2" state="rrr" /><phase duration="41" state="Grr" /><phase duration="3" state="yrr" /></tlLogic><tlLogic id="42428223" type="static" programID="1" offset="53"><phase duration="2" state="yyrr" /><phase duration="2" state="rrrr" /><phase duration="42" state="rrGG" /><phase duration="1" state="rryy" /><phase duration="2" state="rrrr" /><phase duration="42" state="GGrr" /></tlLogic><tlLogic id="42428227" type="static" programID="1" offset="47"><phase duration="3" state="yyrr" /><phase duration="2" state="rrrr" /><phase duration="44" state="rrGG" /><phase duration="5" state="rryy" /><phase duration="2" state="rrrr" /><phase duration="40" state="GGrr" /></tlLogic><tlLogic id="42428232" type="static" programID="1" offset="45"><phase duration="1" state="rryy" /><phase duration="2" state="rrrr" /><phase duration="42" state="GGrr" /><phase duration="3" state="yyrr" /><phase duration="2" state="rrrr" /><phase duration="40" state="rrGG" /></tlLogic><tlLogic id="42428368" type="static" programID="1" offset="21"><phase duration="42" state="rrGG" /><phase duration="1" state="rryy" /><phase duration="2" state="rrrr" /><phase duration="40" state="GGrr" /><phase duration="5" state="yyrr" /></tlLogic><tlLogic id="42428371" type="static" programID="1" offset="55"><phase duration="1" state="yyr" /><phase duration="2" state="rrr" /><phase duration="40" state="rrG" /><phase duration="3" state="rry" /><phase duration="2" state="rrr" /><phase duration="44" state="GGr" /></tlLogic><tlLogic id="42428374" type="static" programID="1" offset="47"><phase duration="44" state="rrrGG" /><phase duration="3" state="rrryy" /><phase duration="2" state="rrrrr" /><phase duration="40" state="GgGrr" /><phase duration="3" state="yyyrr" /></tlLogic><tlLogic id="42428385" type="static" programID="1" offset="47"><phase duration="5" state="rrrryyy" /><phase duration="2" state="rrrrrrr" /><phase duration="40" state="GGGGrrr" /><phase duration="5" state="yyyyrrr" /><phase duration="2" state="rrrrrrr" /><phase duration="42" state="rrrrGGG" /></tlLogic><tlLogic id="42428402" type="static" programID="1" offset="21"><phase duration="42" state="GGGGrrr" /><phase duration="3" state="yyyyrrr" /><phase duration="2" state="rrrrrrr" /><phase duration="41" state="rrrrGGG" /><phase duration="2" state="rrrryyy" /></tlLogic><tlLogic id="42428405" type="static" programID="1" offset="23"><phase duration="2" state="rryGrr" /><phase duration="2" state="rrrrrr" /><phase duration="27" state="GGrGrr" /><phase duration="3" state="yyryrr" /><phase duration="2" state="rrrrrr" /><phase duration="27" state="rrrrGG" /><phase duration="3" state="rrrryy" /><phase duration="2" state="rrrrrr" /><phase duration="25" state="rrGGrr" /></tlLogic><tlLogic id="42428408" type="static" programID="1" offset="11"><phase duration="2" state="yyy" /><phase duration="3" state="rrr" /><phase duration="81" state="GGG" /></tlLogic><tlLogic id="42428411" type="static" programID="1" offset="24"><phase duration="3" state="rrrryyyyyy" /><phase duration="2" state="rrrrrrrrrr" /><phase duration="42" state="GGGGrrrrrr" /><phase duration="2" state="yyyyrrrrrr" /><phase duration="2" state="rrrrrrrrrr" /><phase duration="40" state="rrrrGggGGg" /></tlLogic><tlLogic id="42428420" type="static" programID="1" offset="56"><phase duration="43" state="rrrGG" /><phase duration="4" state="rrryy" /><phase duration="2" state="rrrrr" /><phase duration="40" state="GGGrr" /><phase duration="5" state="yyyrr" /></tlLogic><tlLogic id="42428425" type="static" programID="1" offset="22"><phase duration="4" state="rrryy" /><phase duration="2" state="rrrrr" /><phase duration="42" state="GGGrr" /><phase duration="2" state="yyyrr" /><phase duration="2" state="rrrrr" /><phase duration="41" state="rrrGG" /></tlLogic><tlLogic id="42428428" type="static" programID="1" offset="42"><phase duration="43" state="rrrGG" /><phase duration="2" state="rrryy" /><phase duration="2" state="rrrrr" /><phase duration="41" state="GGGrr" /><phase duration="4" state="yyyrr" /></tlLogic><tlLogic id="42428433" type="static" programID="1" offset="38"><phase duration="3" state="rrrryyyyyyyy" /><phase duration="2" state="rrrrrrrrrrrr" /><phase duration="41" state="GGGGrrrrrrrr" /><phase duration="3" state="yyyyrrrrrrrr" /><phase duration="2" state="rrrrrrrrrrrr" /><phase duration="40" state="rrrrGGggGGGg" /></tlLogic><tlLogic id="42428434" type="static" programID="1" offset="36"><phase duration="4" state="rrrrryyy" /><phase duration="2" state="rrrrrrrr" /><phase duration="40" state="GGGGGrrr" /><phase duration="1" state="yyyyyrrr" /><phase duration="2" state="rrrrrrrr" /><phase duration="41" state="rrrrrGGG" /></tlLogic><tlLogic id="42428436" type="static" programID="1" offset="28"><phase duration="40" state="rrrGG" /><phase duration="3" state="rrryy" /><phase duration="2" state="rrrrr" /><phase duration="44" state="GGGrr" /><phase duration="2" state="yyyrr" /></tlLogic><tlLogic id="42428441" type="static" programID="1" offset="28"><phase duration="40" state="rrrGG" /><phase duration="2" state="rrryy" /><phase duration="2" state="rrrrr" /><phase duration="40" state="GGGrr" /><phase duration="2" state="yyyrr" /></tlLogic><tlLogic id="42428444" type="static" programID="1" offset="1"><phase duration="1" state="rrryy" /><phase duration="2" state="rrrrr" /><phase duration="41" state="GGGrr" /><phase duration="4" state="yyyrr" /><phase duration="2" state="rrrrr" /><phase duration="41" state="rrrGG" /></tlLogic><tlLogic id="42428454" type="static" programID="1" offset="4"><phase duration="84" state="GGG" /><phase duration="2" state="yyy" /><phase duration="3" state="rrr" /></tlLogic><tlLogic id="42428458" type="static" programID="1" offset="50"><phase duration="5" state="rrryy" /><phase duration="2" state="rrrrr" /><phase duration="41" state="GGGrr" /><phase duration="5" state="yyyrr" /><phase duration="2" state="rrrrr" /><phase duration="42" state="rrrGG" /></tlLogic><tlLogic id="42428460" type="static" programID="1" offset="27"><phase duration="42" state="rrrGG" /><phase duration="1" state="rrryy" /><phase duration="2" state="rrrrr" /><phase duration="43" state="GGGrr" /><phase duration="5" state="yyyrr" /></tlLogic><tlLogic id="42428464" type="static" programID="1" offset="52"><phase duration="6" state="rrr" /><phase duration="80" state="GGG" /><phase duration="2" state="yyy" /></tlLogic><tlLogic id="42428468" type="static" programID="1" offset="18"><phase duration="1" state="rry" /><phase duration="2" state="rrr" /><phase duration="40" state="GGr" /><phase duration="1" state="yyr" /><phase duration="2" state="rrr" /><phase duration="44" state="rrG" /></tlLogic><tlLogic id="42428471" type="static" programID="1" offset="56"><phase duration="5" state="rrryy" /><phase duration="2" state="rrrrr" /><phase duration="42" state="GGGrr" /><phase duration="5" state="yyyrr" /><phase duration="2" state="rrrrr" /><phase duration="44" state="rrrGG" /></tlLogic><tlLogic id="42428473" type="static" programID="1" offset="15"><phase duration="2" state="yyyrrr" /><phase duration="2" state="rrrrrr" /><phase duration="43" state="rrrGGG" /><phase duration="2" state="rrryyy" /><phase duration="2" state="rrrrrr" /><phase duration="42" state="GGGrrr" /></tlLogic><tlLogic id="42428476" type="static" programID="1" offset="51"><phase duration="4" state="rrryy" /><phase duration="2" state="rrrrr" /><phase duration="43" state="GGGrr" /><phase duration="4" state="yyyrr" /><phase duration="2" state="rrrrr" /><phase duration="43" state="rrrGG" /></tlLogic><tlLogic id="42428483" type="static" programID="1" offset="55"><phase duration="1" state="yyy" /><phase duration="6" state="rrr" /><phase duration="81" state="GGG" /></tlLogic><tlLogic id="42428489" type="static" programID="1" offset="15"><phase duration="1" state="rrryy" /><phase duration="2" state="rrrrr" /><phase duration="43" state="GGGrr" /><phase duration="4" state="yyyrr" /><phase duration="2" state="rrrrr" /><phase duration="44" state="rrrGG" /></tlLogic><tlLogic id="42428491" type="static" programID="1" offset="54"><phase duration="44" state="GGGrr" /><phase duration="2" state="yyyrr" /><phase duration="2" state="rrrrr" /><phase duration="42" state="rrrGG" /><phase duration="5" state="rrryy" /></tlLogic><tlLogic id="42428524" type="static" programID="1" offset="27"><phase duration="5" state="rr" /><phase duration="81" state="GG" /><phase duration="2" state="yy" /></tlLogic><tlLogic id="42428529" type="static" programID="1" offset="38"><phase duration="3" state="yr" /><phase duration="2" state="rr" /><phase duration="43" state="rG" /><phase duration="4" state="ry" /><phase duration="2" state="rr" /><phase duration="42" state="Gr" /></tlLogic><tlLogic id="42429373" type="static" programID="1" offset="52"><phase duration="3" state="rrryy" /><phase duration="2" state="rrrrr" /><phase duration="40" state="GGGrr" /><phase duration="2" state="yyyrr" /><phase duration="2" state="rrrrr" /><phase duration="44" state="rrrGG" /></tlLogic><tlLogic id="42429374" type="static" programID="1" offset="46"><phase duration="41" state="rrGGGG" /><phase duration="3" state="rryyyy" /><phase duration="2" state="rrrrrr" /><phase duration="44" state="GGrrrr" /><phase duration="2" state="yyrrrr" /></tlLogic><tlLogic id="42429375" type="static" programID="1" offset="5"><phase duration="5" state="yyyyrrr" /><phase duration="2" state="rrrrrrr" /><phase duration="41" state="rrrrGGG" /><phase duration="2" state="rrrryyy" /><phase duration="2" state="rrrrrrr" /><phase duration="40" state="GGGGrrr" /></tlLogic><tlLogic id="42429378" type="static" programID="1" offset="15"><phase duration="2" state="rryyy" /><phase duration="2" state="rrrrr" /><phase duration="44" state="GGrrr" /><phase duration="3" state="yyrrr" /><phase duration="2" state="rrrrr" /><phase duration="44" state="rrGgG" /></tlLogic><tlLogic id="42429394" type="static" programID="1" offset="37"><phase duration="3" state="yyyrr" /><phase duration="2" state="rrrrr" /><phase duration="42" state="rrrGG" /><phase duration="1" state="rrryy" /><phase duration="2" state="rrrrr" /><phase duration="40" state="GGGrr" /></tlLogic><tlLogic id="42429562" type="static" programID="1" offset="40"><phase duration="3" state="rryyyy" /><phase duration="2" state="rrrrrr" /><phase duration="42" state="GGrrrr" /><phase duration="1" state="yyrrrr" /><phase duration="2" state="rrrrrr" /><phase duration="40" state="rrGGGG" /></tlLogic><tlLogic id="42429563" type="static" programID="1" offset