<?xml version="1.0" encoding="UTF-8"?>
<additional><tlLogic id="11038072110" type="static" programID="1" offset="120"><phase duration="30" state="GGrrrrrrr" /><phase duration="3" state="yyrrrrrrr" /><phase duration="2" state="rrrrrrrrr" /><phase duration="30" state="rrGGrrrrr" /><phase duration="3" state="rryyrrrrr" /><phase duration="2" state="rrrrrrrrr" /><phase duration="30" state="rrrrGGrrr" /><phase duration="3" state="rrrryyrrr" /><phase duration="2" state="rrrrrrrrr" /><phase duration="30" state="rrrrrrGGG" /><phase duration="3" state="rrrrrryyy" /><phase duration="2" state="rrrrrrrrr" /></tlLogic><tlLogic id="12554607194" type="static" programID="1" offset="245"><phase duration="30" state="Grr" /><phase duration="3" state="yrr" /><phase duration="2" state="rrr" /><phase duration="30" state="rGr" /><phase duration="3" state="ryr" /><phase duration="2" state="rrr" /><phase duration="30" state="rrG" /><phase duration="3" state="rry" /><phase duration="2" state="rrr" /></tlLogic><tlLogic id="1431790464" type="static" programID="1" offset="14"><phase duration="30" state="GGrrrr" /><phase duration="3" state="yyrrrr" /><phase duration="2" state="rrrrrr" /><phase duration="30" state="rrGGrr" /><phase duration="3" state="rryyrr" /><phase duration="2" state="rrrrrr" /><phase duration="30" state="rrrrGG" /><phase duration="3" state="rrrryy" /><phase duration="2" state="rrrrrr" /></tlLogic><tlLogic id="1431790465" type="static" programID="1" offset="264"><phase duration="30" state="GGrrrr" /><phase duration="3" state="yyrrrr" /><phase duration="2" state="rrrrrr" /><phase duration="30" state="rrGGrr" /><phase duration="3" state="rryyrr" /><phase duration="2" state="rrrrrr" /><phase duration="30" state="rrrrGG" /><phase duration="3" state="rrrryy" /><phase duration="2" state="rrrrrr" /></tlLogic><tlLogic id="1692433919" type="static" programID="1" offset="90"><phase duration="30" state="GGrrrr" /><phase duration="3" state="yyrrrr" /><phase duration="2" state="rrrrrr" /><phase duration="30" state="rrGGrr" /><phase duration="3" state="rryyrr" /><phase duration="2" state="rrrrrr" /><phase duration="30" state="rrrrGG" /><phase duration="3" state="rrrryy" /><phase duration="2" state="rrrrrr" /></tlLogic><tlLogic id="1692433928" type="static" programID="1" offset="27"><phase duration="30" state="GGrrrrrrr" /><phase duration="3" state="yyrrrrrrr" /><phase duration="2" state="rrrrrrrrr" /><phase duration="30" state="rrGGrrrrr" /><phase duration="3" state="rryyrrrrr" /><phase duration="2" state="rrrrrrrrr" /><phase duration="30" state="rrrrGGrrr" /><phase duration="3" state="rrrryyrrr" /><phase duration="2" state="rrrrrrrrr" /><phase duration="30" state="rrrrrrGGG" /><phase duration="3" state="rrrrrryyy" /><phase duration="2" state="rrrrrrrrr" /></tlLogic><tlLogic id="1692433932" type="static" programID="1" offset="234"><phase duration="30" state="GGrr" /><phase duration="3" state="yyrr" /><phase duration="2" state="rrrr" /><phase duration="30" state="rrGG" /><phase duration="3" state="rryy" /><phase duration="2" state="rrrr" /></tlLogic><tlLogic id="1692433935" type="static" programID="1" offset="192"><phase duration="30" state="GGrr" /><phase duration="3" state="yyrr" /><phase duration="2" state="rrrr" /><phase duration="30" state="rrGG" /><phase duration="3" state="rryy" /><phase duration="2" state="rrrr" /></tlLogic><tlLogic id="1692433936" type="static" programID="1" offset="146"><phase duration="30" state="GGrr" /><phase duration="3" state="yyrr" /><phase duration="2" state="rrrr" /><phase duration="30" state="rrGG" /><phase duration="3" state="rryy" /><phase duration="2" state="rrrr" /></tlLogic><tlLogic id="1692433938" type="static" programID="1" offset="132"><phase duration="30" state="GGrr" /><phase duration="3" state="yyrr" /><phase duration="2" state="rrrr" /><phase duration="30" state="rrGG" /><phase duration="3" state="rryy" /><phase duration="2" state="rrrr" /></tlLogic><tlLogic id="1692433940" type="static" programID="1" offset="31"><phase duration="30" state="GGrr" /><phase duration="3" state="yyrr" /><phase duration="2" state="rrrr" /><phase duration="30" state="rrGG" /><phase duration="3" state="rryy" /><phase duration="2" state="rrrr" /></tlLogic><tlLogic id="1692433941" type="static" programID="1" offset="60"><phase duration="30" state="GGrr" /><phase duration="3" state="yyrr" /><phase duration="2" state="rrrr" /><phase duration="30" state="rrGG" /><phase duration="3" state="rryy" /><phase duration="2" state="rrrr" /></tlLogic><tlLogic id="1773084402" type="static" programID="1" offset="178"><phase duration="30" state="GGrrrrrrrrr" /><phase duration="3" state="yyrrrrrrrrr" /><phase duration="2" state="rrrrrrrrrrr" /><phase duration="30" state="rrGGrrrrrrr" /><phase duration="3" state="rryyrrrrrrr" /><phase duration="2" state="rrrrrrrrrrr" /><phase duration="30" state="rrrrGGrrrrr" /><phase duration="3" state="rrrryyrrrrr" /><phase duration="2" state="rrrrrrrrrrr" /><phase duration="30" state="rrrrrrGGGGG" /><phase duration="3" state="rrrrrryyyyy" /><phase duration="2" state="rrrrrrrrrrr" /></tlLogic><tlLogic id="2324482224" type="static" programID="1" offset="93"><phase duration="30" state="GGrrrr" /><phase duration="3" state="yyrrrr" /><phase duration="2" state="rrrrrr" /><phase duration="30" state="rrGGrr" /><phase duration="3" state="rryyrr" /><phase duration="2" state="rrrrrr" /><phase duration="30" state="rrrrGG" /><phase duration="3" state="rrrryy" /><phase duration="2" state="rrrrrr" /></tlLogic><tlLogic id="2340051732" type="static" programID="1" offset="144"><phase duration="30" state="GGrr" /><phase duration="3" state="yyrr" /><phase duration="2" state="rrrr" /><phase duration="30" state="rrGG" /><phase duration="3" state="rryy" /><phase duration="2" state="rrrr" /></tlLogic><tlLogic id="246650840" type="static" programID="1" offset="149"><phase duration="30" state="Grrrr" /><phase duration="3" state="yrrrr" /><phase duration="2" state="rrrrr" /><phase duration="30" state="rGrrr" /><phase duration="3" state="ryrrr" /><phase duration="2" state="rrrrr" /><phase duration="30" state="rrGrr" /><phase duration="3" state="rryrr" /><phase duration="2" state="rrrrr" /><phase duration="30" state="rrrGG" /><phase duration="3" state="rrryy" /><phase duration="2" state="rrrrr" /></tlLogic><tlLogic id="248607283" type="static" programID="1" offset="172"><phase duration="30" state="GGrrrr" /><phase duration="3" state="yyrrrr" /><phase duration="2" state="rrrrrr" /><phase duration="30" state="rrGGrr" /><phase duration="3" state="rryyrr" /><phase duration="2" state="rrrrrr" /><phase duration="30" state="rrrrGG" /><phase duration="3" state="rrrryy" /><phase duration="2" state="rrrrrr" /></tlLogic><tlLogic id="272194254" type="static" programID="1" offset="20"><phase duration="30" state="GGrrrr" /><phase duration="3" state="yyrrrr" /><phase duration="2" state="rrrrrr" /><phase duration="30" state="rrGGrr" /><phase duration="3" state="rryyrr" /><phase duration="2" state="rrrrrr" /><phase duration="30" state="rrrrGG" /><phase duration="3" state="rrrryy" /><phase duration="2" state="rrrrrr" /></tlLogic><tlLogic id="272195270" type="static" programID="1" offset="253"><phase duration="30" state="GGrrrrrr" /><phase duration="3" state="yyrrrrrr" /><phase duration="2" state="rrrrrrrr" /><phase duration="30" state="rrGGrrrr" /><phase duration="3" state="rryyrrrr" /><phase duration="2" state="rrrrrrrr" /><phase duration="30" state="rrrrGGrr" /><phase duration="3" state="rrrryyrr" /><phase duration="2" state="rrrrrrrr" /><phase duration="30" state="rrrrrrGG" /><phase duration="3" state="rrrrrryy" /><phase duration="2" state="rrrrrrrr" /></tlLogic><tlLogic id="272195271" type="static" programID="1" offset="121"><phase duration="30" state="GGGrrrrrrrrr" /><phase duration="3" state="yyyrrrrrrrrr" /><phase duration="2" state="rrrrrrrrrrrr" /><phase duration="30" state="rrrGGGrrrrrr" /><phase duration="3" state="rrryyyrrrrrr" /><phase duration="2" state="rrrrrrrrrrrr" /><phase duration="30" state="rrrrrrGGGrrr" /><phase duration="3" state="rrrrrryyyrrr" /><phase duration="2" state="rrrrrrrrrrrr" /><phase duration="30" state="rrrrrrrrrGGG" /><phase duration="3" state="rrrrrrrrryyy" /><phase duration="2" state="rrrrrrrrrrrr" /></tlLogic><tlLogic id="279151954" type="static" programID="1" offset="188"><phase duration="30" state="GGrrrrrrrr" /><phase duration="3" state="yyrrrrrrrr" /><phase duration="2" state="rrrrrrrrrr" /><phase duration="30" state="rrGGrrrrrr" /><phase duration="3" state="rryyrrrrrr" /><phase duration="2" state="rrrrrrrrrr" /><phase duration="30" state="rrrrGGrrrr" /><phase duration="3" state="rrrryyrrrr" /><phase duration="2" state="rrrrrrrrrr" /><phase duration="30" state="rrrrrrGGGG" /><phase duration="3" state="rrrrrryyyy" /><phase duration="2" state="rrrrrrrrrr" /></tlLogic><tlLogic id="2821304136" type="static" programID="1" offset="295"><phase duration="30" state="GGrr" /><phase duration="3" state="yyrr" /><phase duration="2" state="rrrr" /><phase duration="30" state="rrGG" /><phase duration="3" state="rryy" /><phase duration="2" state="rrrr" /></tlLogic><tlLogic id="2821304137" type="static" programID="1" offset="297"><phase duration="30" state="GGrrrrrrr" /><phase duration="3" state="yyrrrrrrr" /><phase duration="2" state="rrrrrrrrr" /><phase duration="30" state="rrGGrrrrr" /><phase duration="3" state="rryyrrrrr" /><phase duration="2" state="rrrrrrrrr" /><phase duration="30" state="rrrrGGrrr" /><phase duration="3" state="rrrryyrrr" /><phase duration="2" state="rrrrrrrrr" /><phase duration="30" state="rrrrrrGGG" /><phase duration="3" state="rrrrrryyy" /><phase duration="2" state="rrrrrrrrr" /></tlLogic><tlLogic id="2821304138" type="static" programID="1" offset="269"><phase duration="30" state="GGrrrr" /><phase duration="3" state="yyrrrr" /><phase duration="2" state="rrrrrr" /><phase duration="30" state="rrGGrr" /><phase duration="3" state="rryyrr" /><phase duration="2" state="rrrrrr" /><phase duration="30" state="rrrrGG" /><phase duration="3" state="rrrryy" /><phase duration="2" state="rrrrrr" /></tlLogic><tlLogic id="3212472963" type="static" programID="1" offset="116"><phase duration="30" state="Grr" /><phase duration="3" state="yrr" /><phase duration="2" state="rrr" /><phase duration="30" state="rGr" /><phase duration="3" state="ryr" /><phase duration="2" state="rrr" /><phase duration="30" state="rrG" /><phase duration="3" state="rry" /><phase duration="2" state="rrr" /></tlLogic><tlLogic id="3350498747" type="static" programID="1" offset="77"><phase duration="30" state="GGrrrrrrrrr" /><phase duration="3" state="yyrrrrrrrrr" /><phase duration="2" state="rrrrrrrrrrr" /><phase duration="30" state="rrGGrrrrrrr" /><phase duration="3" state="rryyrrrrrrr" /><phase duration="2" state="rrrrrrrrrrr" /><phase duration="30" state="rrrrGGrrrrr" /><phase duration="3" state="rrrryyrrrrr" /><phase duration="2" state="rrrrrrrrrrr" /><phase duration="30" state="rrrrrrGGGGG" /><phase duration="3" state="rrrrrryyyyy" /><phase duration="2" state="rrrrrrrrrrr" /></tlLogic><tlLogic id="3567807957" type="static" programID="1" offset="107"><phase duration="30" state="GGrr" /><phase duration="3" state="yyrr" /><phase duration="2" state="rrrr" /><phase duration="30" state="rrGG" /><phase duration="3" state="rryy" /><phase duration="2" state="rrrr" /></tlLogic><tlLogic id="3584752508" type="static" programID="1" offset="225"><phase duration="30" state="GGrr" /><phase duration="3" state="yyrr" /><phase duration="2" state="rrrr" /><phase duration="30" state="rrGG" /><phase duration="3" state="rryy" /><phase duration="2" state="rrrr" /></tlLogic><tlLogic id="3630219668" type="static" programID="1" offset="165"><phase duration="30" state="Gr" /><phase duration="3" state="yr" /><phase duration="2" state="rr" /><phase duration="30" state="rG" /><phase duration="3" state="ry" /><phase duration="2" state="rr" /></tlLogic><tlLogic id="3786901738" type="static" programID="1" offset="180"><phase duration="30" state="Grrrr" /><phase duration="3" state="yrrrr" /><phase duration="2" state="rrrrr" /><phase duration="30" state="rGrrr" /><phase duration="3" state="ryrrr" /><phase duration="2" state="rrrrr" /><phase duration="30" state="rrGrr" /><phase duration="3" state="rryrr" /><phase duration="2" state="rrrrr" /><phase duration="30" state="rrrGG" /><phase duration="3" state="rrryy" /><phase duration="2" state="rrrrr" /></tlLogic><tlLogic id="4012724171" type="static" programID="1" offset="277"><phase duration="30" state="GGrrrrrr" /><phase duration="3" state="yyrrrrrr" /><phase duration="2" state="rrrrrrrr" /><phase duration="30" state="rrGGrrrr" /><phase duration="3" state="rryyrrrr" /><phase duration="2" state="rrrrrrrr" /><phase duration="30" state="rrrrGGrr" /><phase duration="3" state="rrrryyrr" /><phase duration="2" state="rrrrrrrr" /><phase duration="30" state="rrrrrrGG" /><phase duration="3" state="rrrrrryy" /><phase duration="2" state="rrrrrrrr" /></tlLogic><tlLogic id="4121409402" type="static" programID="1" offset="232"><phase duration="30" state="GGrrrr" /><phase duration="3" state="yyrrrr" /><phase duration="2" state="rrrrrr" /><phase duration="30" state="rrGGrr" /><phase duration="3" state="rryyrr" /><phase duration="2" state="rrrrrr" /><phase duration="30" state="rrrrGG" /><phase duration="3" state="rrrryy" /><phase duration="2" state="rrrrrr" /></tlLogic><tlLogic id="4149936235" type="static" programID="1" offset="3"><phase duration="30" state="Grrrrrr" /><phase duration="3" state="yrrrrrr" /><phase duration="2" state="rrrrrrr" /><phase duration="30" state="rGrrrrr" /><phase duration="3" state="ryrrrrr" /><phase duration="2" state="rrrrrrr" /><phase duration="30" state="rrGrrrr" /><phase duration="3" state="rryrrrr" /><phase duration="2" state="rrrrrrr" /><phase duration="30" state="rrrGGGG" /><phase duration="3" state="rrryyyy" /><phase duration="2" state="rrrrrrr" /></tlLogic><tlLogic id="42421889" type="static" programID="1" offset="225"><phase duration="30" state="GGrrrr" /><phase duration="3" state="yyrrrr" /><phase duration="2" state="rrrrrr" /><phase duration="30" state="rrGGrr" /><phase duration="3" state="rryyrr" /><phase duration="2" state="rrrrrr" /><phase duration="30" state="rrrrGG" /><phase duration="3" state="rrrryy" /><phase duration="2" state="rrrrrr" /></tlLogic><tlLogic id="42422026" type="static" programID="1" offset="222"><phase duration="30" state="GGrrrrrrr" /><phase duration="3" state="yyrrrrrrr" /><phase duration="2" state="rrrrrrrrr" /><phase duration="30" state="rrGGrrrrr" /><phase duration="3" state="rryyrrrrr" /><phase duration="2" state="rrrrrrrrr" /><phase duration="30" state="rrrrGGrrr" /><phase duration="3" state="rrrryyrrr" /><phase duration="2" state="rrrrrrrrr" /><phase duration="30" state="rrrrrrGGG" /><phase duration="3" state="rrrrrryyy" /><phase duration="2" state="rrrrrrrrr" /></tlLogic><tlLogic id="42422035" type="static" programID="1" offset="241"><phase duration="30" state="GGrrrrrrrr" /><phase duration="3" state="yyrrrrrrrr" /><phase duration="2" state="rrrrrrrrrr" /><phase duration="30" state="rrGGrrrrrr" /><phase duration="3" state="rryyrrrrrr" /><phase duration="2" state="rrrrrrrrrr" /><phase duration="30" state="rrrrGGrrrr" /><phase duration="3" state="rrrryyrrrr" /><phase duration="2" state="rrrrrrrrrr" /><phase duration="30" state="rrrrrrGGGG" /><phase duration="3" state="rrrrrryyyy" /><phase duration="2" state="rrrrrrrrrr" /></tlLogic><tlLogic id="42422038" type="static" programID="1" offset="150"><phase duration="30" state="Grrrr" /><phase duration="3" state="yrrrr" /><phase duration="2" state="rrrrr" /><phase duration="30" state="rGrrr" /><phase duration="3" state="ryrrr" /><phase duration="2" state="rrrrr" /><phase duration="30" state="rrGrr" /><phase duration="3" state="rryrr" /><phase duration="2" state="rrrrr" /><phase duration="30" state="rrrGG" /><phase duration="3" state="rrryy" /><phase duration="2" state="rrrrr" /></tlLogic><tlLogic id="42422042" type="static" programID="1" offset="191"><phase duration="30" state="GGrrrrrr" /><phase duration="3" state="yyrrrrrr" /><phase duration="2" state="rrrrrrrr" /><phase duration="30" state="rrGGrrrr" /><phase duration="3" state="rryyrrrr" /><phase duration="2" state="rrrrrrrr" /><phase duration="30" state="rrrrGGrr" /><phase duration="3" state="rrrryyrr" /><phase duration="2" state="rrrrrrrr" /><phase duration="30" state="rrrrrrGG" /><phase duration="3" state="rrrrrryy" /><phase duration="2" state="rrrrrrrr" /></tlLogic><tlLogic id="42424408" type="static" programID="1" offset="235"><phase duration="30" state="GGGrrrrrrrrrr" /><phase duration="3" state="yyyrrrrrrrrrr" /><phase duration="2" state="rrrrrrrrrrrrr" /><phase duration="30" state="rrrGGGrrrrrrr" /><phase duration="3" state="rrryyyrrrrrrr" /><phase duration="2" state="rrrrrrrrrrrrr" /><phase duration="30" state="rrrrrrGGGrrrr" /><phase duration="3" state="rrrrrryyyrrrr" /><phase duration="2" state="rrrrrrrrrrrrr" /><phase duration="30" state="rrrrrrrrrGGGG" /><phase duration="3" state="rrrrrrrrryyyy" /><phase duration="2" state="rrrrrrrrrrrrr" /></tlLogic><tlLogic id="42424610" type="static" programID="1" offset="256"><phase duration="30" state="GGrrrrrrrrr" /><phase duration="3" state="yyrrrrrrrrr" /><phase duration="2" state="rrrrrrrrrrr" /><phase duration="30" state="rrGGrrrrrrr" /><phase duration="3" state="rryyrrrrrrr" /><phase duration="2" state="rrrrrrrrrrr" /><phase duration="30" state="rrrrGGrrrrr" /><phase duration="3" state="rrrryyrrrrr" /><phase duration="2" state="rrrrrrrrrrr" /><phase duration="30" state="rrrrrrGGGGG" /><phase duration="3" state="rrrrrryyyyy" /><phase duration="2" state="rrrrrrrrrrr" /></tlLogic><tlLogic id="42424864" type="static" programID="1" offset="135"><phase duration="30" state="Grr" /><phase duration="3" state="yrr" /><phase duration="2" state="rrr" /><phase duration="30" state="rGr" /><phase duration="3" state="ryr" /><phase duration="2" state="rrr" /><phase duration="30" state="rrG" /><phase duration="3" state="rry" /><phase duration="2" state="rrr" /></tlLogic><tlLogic id="42425955" type="static" programID="1" offset="0"><phase duration="30" state="Grrrrrr" /><phase duration="3" state="yrrrrrr" /><phase duration="2" state="rrrrrrr" /><phase duration="30" state="rGrrrrr" /><phase duration="3" state="ryrrrrr" /><phase duration="2" state="rrrrrrr" /><phase duration="30" state="rrGrrrr" /><phase duration="3" state="rryrrrr" /><phase duration="2" state="rrrrrrr" /><phase duration="30" state="rrrGGGG" /><phase duration="3" state="rrryyyy" /><phase duration="2" state="rrrrrrr" /></tlLogic><tlLogic id="42426747" type="static" programID="1" offset="40"><phase duration="30" state="GGrrrrrrrr" /><phase duration="3" state="yyrrrrrrrr" /><phase duration="2" state="rrrrrrrrrr" /><phase duration="30" state="rrGGrrrrrr" /><phase duration="3" state="rryyrrrrrr" /><phase duration="2" state="rrrrrrrrrr" /><phase duration="30" state="rrrrGGrrrr" /><phase duration="3" state="rrrryyrrrr" /><phase duration="2" state="rrrrrrrrrr" /><phase duration="30" state="rrrrrrGGGG" /><phase duration="3" state="rrrrrryyyy" /><phase duration="2" state="rrrrrrrrrr" /></tlLogic><tlLogic id="42427242" type="static" programID="1" offset="59"><phase duration="30" state="GGrrrr" /><phase duration="3" state="yyrrrr" /><phase duration="2" state="rrrrrr" /><phase duration="30" state="rrGGrr" /><phase duration="3" state="rryyrr" /><phase duration="2" state="rrrrrr" /><phase duration="30" state="rrrrGG" /><phase duration="3" state="rrrryy" /><phase duration="2" state="rrrrrr" /></tlLogic><tlLogic id="42427290" type="static" programID="1" offset="221"><phase duration="30" state="Grr" /><phase duration="3" state="yrr" /><phase duration="2" state="rrr" /><phase duration="30" state="rGr" /><phase duration="3" state="ryr" /><phase duration="2" state="rrr" /><phase duration="30" state="rrG" /><phase duration="3" state="rry" /><phase duration="2" state="rrr" /></tlLogic><tlLogic id="42427300" type="static" programID="1" offset="196"><phase duration="30" state="GGrrrrrrr" /><phase duration="3" state="yyrrrrrrr" /><phase duration="2" state="rrrrrrrrr" /><phase duration="30" state="rrGGrrrrr" /><phase duration="3" state="rryyrrrrr" /><phase duration="2" state="rrrrrrrrr" /><phase duration="30" state="rrrrGGrrr" /><phase duration="3" state="rrrryyrrr" /><phase duration="2" state="rrrrrrrrr" /><phase duration="30" state="rrrrrrGGG" /><phase duration="3" state="rrrrrryyy" /><phase duration="2" state="rrrrrrrrr" /></tlLogic><tlLogic id="42427305" type="static" programID="1" offset="99"><phase duration="30" state="GGrr" /><phase duration="3" state="yyrr" /><phase duration="2" state="rrrr" /><phase duration="30" state="rrGG" /><phase duration="3" state="rryy" /><phase duration="2" state="rrrr" /></tlLogic><tlLogic id="42427346" type="static" programID="1" offset="8"><phase duration="30" state="Grr" /><phase duration="3" state="yrr" /><phase duration="2" state="rrr" /><phase duration="30" state="rGr" /><phase duration="3" state="ryr" /><phase duration="2" state="rrr" /><phase duration="30" state="rrG" /><phase duration="3" state="rry" /><phase duration="2" state="rrr" /></tlLogic><tlLogic id="42427352" type="static" programID="1" offset="84"><phase duration="30" state="GGrrrr" /><phase duration="3" state="yyrrrr" /><phase duration="2" state="rrrrrr" /><phase duration="30" state="rrGGrr" /><phase duration="3" state="rryyrr" /><phase duration="2" state="rrrrrr" /><phase duration="30" state="rrrrGG" /><phase duration="3" state="rrrryy" /><phase duration="2" state="rrrrrr" /></tlLogic><tlLogic id="42427374" type="static" programID="1" offset="97"><phase duration="30" state="GGrrrr" /><phase duration="3" state="yyrrrr" /><phase duration="2" state="rrrrrr" /><phase duration="30" state="rrGGrr" /><phase duration="3" state="rryyrr" /><phase duration="2" state="rrrrrr" /><phase duration="30" state="rrrrGG" /><phase duration="3" state="rrrryy" /><phase duration="2" state="rrrrrr" /></tlLogic><tlLogic id="42427381" type="static" programID="1" offset="45"><phase duration="30" state="Grrrrrr" /><phase duration="3" state="yrrrrrr" /><phase duration="2" state="rrrrrrr" /><phase duration="30" state="rGrrrrr" /><phase duration="3" state="ryrrrrr" /><phase duration="2" state="rrrrrrr" /><phase duration="30" state="rrGrrrr" /><phase duration="3" state="rryrrrr" /><phase duration="2" state="rrrrrrr" /><phase duration="30" state="rrrGGGG" /><phase duration="3" state="rrryyyy" /><phase duration="2" state="rrrrrrr" /></tlLogic><tlLogic id="42427423" type="static" programID="1" offset="108"><phase duration="30" state="GGrrrrrr" /><phase duration="3" state="yyrrrrrr" /><phase duration="2" state="rrrrrrrr" /><phase duration="30" state="rrGGrrrr" /><phase duration="3" state="rryyrrrr" /><phase duration="2" state="rrrrrrrr" /><phase duration="30" state="rrrrGGrr" /><phase duration="3" state="rrrryyrr" /><phase duration="2" state="rrrrrrrr" /><phase duration="30" state="rrrrrrGG" /><phase duration="3" state="rrrrrryy" /><phase duration="2" state="rrrrrrrr" /></tlLogic><tlLogic id="42427426" type="static" programID="1" offset="283"><phase duration="30" state="GGrrrrrr" /><phase duration="3" state="yyrrrrrr" /><phase duration="2" state="rrrrrrrr" /><phase duration="30" state="rrGGrrrr" /><phase duration="3" state="rryyrrrr" /><phase duration="2" state="rrrrrrrr" /><phase duration="30" state="rrrrGGrr" /><phase duration="3" state="rrrryyrr" /><phase duration="2" state="rrrrrrrr" /><phase duration="30" state="rrrrrrGG" /><phase duration="3" state="rrrrrryy" /><phase duration="2" state="rrrrrrrr" /></tlLogic><tlLogic id="42427477" type="static" programID="1" offset="88"><phase duration="30" state="GGrrrrrr" /><phase duration="3" state="yyrrrrrr" /><phase duration="2" state="rrrrrrrr" /><phase duration="30" state="rrGGrrrr" /><phase duration="3" state="rryyrrrr" /><phase duration="2" state="rrrrrrrr" /><phase duration="30" state="rrrrGGrr" /><phase duration="3" state="rrrryyrr" /><phase duration="2" state="rrrrrrrr" /><phase duration="30" state="rrrrrrGG" /><phase duration="3" state="rrrrrryy" /><phase duration="2" state="rrrrrrrr" /></tlLogic><tlLogic id="42427483" type="static" programID="1" offset="109"><phase duration="30" state="GGrrrrrrrr" /><phase duration="3" state="yyrrrrrrrr" /><phase duration="2" state="rrrrrrrrrr" /><phase duration="30" state="rrGGrrrrrr" /><phase duration="3" state="rryyrrrrrr" /><phase duration="2" state="rrrrrrrrrr" /><phase duration="30" state="rrrrGGrrrr" /><phase duration="3" state="rrrryyrrrr" /><phase duration="2" state="rrrrrrrrrr" /><phase duration="30" state="rrrrrrGGGG" /><phase duration="3" state="rrrrrryyyy" /><phase duration="2" state="rrrrrrrrrr" /></tlLogic><tlLogic id="42427742" type="static" programID="1" offset="180"><phase duration="30" state="GGrrrr" /><phase duration="3" state="yyrrrr" /><phase duration="2" state="rrrrrr" /><phase duration="30" state="rrGGrr" /><phase duration="3" state="rryyrr" /><phase duration="2" state="rrrrrr" /><phase duration="30" state="rrrrGG" /><phase duration="3" state="rrrryy" /><phase duration="2" state="rrrrrr" /></tlLogic><tlLogic id="42427744" type="static" programID="1" offset="28"><phase duration="30" state="GGGrrrrrrrrr" /><phase duration="3" state="yyyrrrrrrrrr" /><phase duration="2" state="rrrrrrrrrrrr" /><phase duration="30" state="rrrGGGrrrrrr" /><phase duration="3" state="rrryyyrrrrrr" /><phase duration="2" state="rrrrrrrrrrrr" /><phase duration="30" state="rrrrrrGGGrrr" /><phase duration="3" state="rrrrrryyyrrr" /><phase duration="2" state="rrrrrrrrrrrr" /><phase duration="30" state="rrrrrrrrrGGG" /><phase duration="3" state="rrrrrrrrryyy" /><phase duration="2" state="rrrrrrrrrrrr" /></tlLogic><tlLogic id="42427786" type="static" programID="1" offset="285"><phase duration="30" state="GGrr" /><phase duration="3" state="yyrr" /><phase duration="2" state="rrrr" /><phase duration="30" state="rrGG" /><phase duration="3" state="rryy" /><phase duration="2" state="rrrr" /></tlLogic><tlLogic id="42427787" type="static" programID="1" offset="81"><phase duration="30" state="GGrr" /><phase duration="3" state="yyrr" /><phase duration="2" state="rrrr" /><phase duration="30" state="rrGG" /><phase duration="3" state="rryy" /><phase duration="2" state="rrrr" /></tlLogic><tlLogic id="42427797" type="static" programID="1" offset="221"><phase duration="30" state="GGrrrrrr" /><phase duration="3" state="yyrrrrrr" /><phase duration="2" state="rrrrrrrr" /><phase duration="30" state="rrGGrrrr" /><phase duration="3" state="rryyrrrr" /><phase duration="2" state="rrrrrrrr" /><phase duration="30" state="rrrrGGrr" /><phase duration="3" state="rrrryyrr" /><phase duration="2" state="rrrrrrrr" /><phase duration="30" state="rrrrrrGG" /><phase duration="3" state="rrrrrryy" /><phase duration="2" state="rrrrrrrr" /></tlLogic><tlLogic id="42427805" type="static" programID="1" offset="236"><phase duration="30" state="Grrrrrr" /><phase duration="3" state="yrrrrrr" /><phase duration="2" state="rrrrrrr" /><phase duration="30" state="rGrrrrr" /><phase duration="3" state="ryrrrrr" /><phase duration="2" state="rrrrrrr" /><phase duration="30" state="rrGrrrr" /><phase duration="3" state="rryrrrr" /><phase duration="2" state="rrrrrrr" /><phase duration="30" state="rrrGGGG" /><phase duration="3" state="rrryyyy" /><phase duration="2" state="rrrrrrr" /></tlLogic><tlLogic id="42427812" type="static" programID="1" offset="109"><phase duration="30" state="GGrrrrrr" /><phase duration="3" state="yyrrrrrr" /><phase duration="2" state="rrrrrrrr" /><phase duration="30" state="rrGGrrrr" /><phase duration="3" state="rryyrrrr" /><phase duration="2" state="rrrrrrrr" /><phase duration="30" state="rrrrGGrr" /><phase duration="3" state="rrrryyrr" /><phase duration="2" state="rrrrrrrr" /><phase duration="30" state="rrrrrrGG" /><phase duration="3" state="rrrrrryy" /><phase duration="2" state="rrrrrrrr" /></tlLogic><tlLogic id="42428170" type="static" programID="1" offset="194"><phase duration="30" state="Gr" /><phase duration="3" state="yr" /><phase duration="2" state="rr" /><phase duration="30" state="rG" /><phase duration="3" state="ry" /><phase duration="2" state="rr" /></tlLogic><tlLogic id="42428174" type="static" programID="1" offset="218"><phase duration="30" state="Gr" /><phase duration="3" state="yr" /><phase duration="2" state="rr" /><phase duration="30" state="rG" /><phase duration="3" state="ry" /><phase duration="2" state="rr" /></tlLogic><tlLogic id="42428179" type="static" programID="1" offset="53"><phase duration="30" state="Grr" /><phase duration="3" state="yrr" /><phase duration="2" state="rrr" /><phase duration="30" state="rGr" /><phase duration="3" state="ryr" /><phase duration="2" state="rrr" /><phase duration="30" state="rrG" /><phase duration="3" state="rry" /><phase duration="2" state="rrr" /></tlLogic><tlLogic id="42428198" type="static" programID="1" offset="1"><phase duration="30" state="GGrr" /><phase duration="3" state="yyrr" /><phase duration="2" state="rrrr" /><phase duration="30" state="rrGG" /><phase duration="3" state="rryy" /><phase duration="2" state="rrrr" /></tlLogic><tlLogic id="42428206" type="static" programID="1" offset="189"><phase duration="30" state="GGrr" /><phase duration="3" state="yyrr" /><phase duration="2" state="rrrr" /><phase duration="30" state="rrGG" /><phase duration="3" state="rryy" /><phase duration="2" state="rrrr" /></tlLogic><tlLogic id="42428220" type="static" programID="1" offset="117"><phase duration="30" state="Grr" /><phase duration="3" state="yrr" /><phase duration="2" state="rrr" /><phase duration="30" state="rGr" /><phase duration="3" state="ryr" /><phase duration="2" state="rrr" /><phase duration="30" state="rrG" /><phase duration="3" state="rry" /><phase duration="2" state="rrr" /></tlLogic><tlLogic id="42428223" type="static" programID="1" offset="27"><phase duration="30" state="GGrr" /><phase duration="3" state="yyrr" /><phase durat