<?xml version="1.0" encoding="UTF-8"?>
<additional><tlLogic id="11038072110" type="static" programID="1" offset="0"><phase duration="42" state="GGGGGGGGG" /><phase duration="3" state="rrrrrrGGG" /><phase duration="42" state="rrrrrrGGG" /><phase duration="3" state="rrrrrrGGG" /></tlLogic><tlLogic id="12554607194" type="static" programID="1" offset="0"><phase duration="82" state="GGG" /><phase duration="3" state="rrG" /><phase duration="5" state="rrG" /></tlLogic><tlLogic id="1431790464" type="static" programID="1" offset="0"><phase duration="42" state="GGGGGG" /><phase duration="3" state="rrrrGG" /><phase duration="42" state="rrGGGG" /><phase duration="3" state="rrrrGG" /></tlLogic><tlLogic id="1431790465" type="static" programID="1" offset="0"><phase duration="42" state="GGrrGG" /><phase duration="3" state="rrrrGG" /><phase duration="42" state="rrGGGG" /><phase duration="3" state="rrrrGG" /></tlLogic><tlLogic id="1692433919" type="static" programID="1" offset="0"><phase duration="42" state="GGGGGG" /><phase duration="3" state="rrrrGG" /><phase duration="42" state="rrrrGG" /><phase duration="3" state="rrrrGG" /></tlLogic><tlLogic id="1692433928" type="static" programID="1" offset="0"><phase duration="42" state="GGGGGGGGG" /><phase duration="3" state="rrrrrrGGG" /><phase duration="42" state="rrrrrrGGG" /><phase duration="3" state="rrrrrrGGG" /></tlLogic><tlLogic id="1692433932" type="static" programID="1" offset="0"><phase duration="42" state="GGGG" /><phase duration="3" state="rrGG" /><phase duration="42" state="rrGG" /><phase duration="3" state="rrGG" /></tlLogic><tlLogic id="1692433935" type="static" programID="1" offset="0"><phase duration="42" state="GGGG" /><phase duration="3" state="rrGG" /><phase duration="42" state="rrGG" /><phase duration="3" state="rrGG" /></tlLogic><tlLogic id="1692433936" type="static" programID="1" offset="0"><phase duration="42" state="GGGG" /><phase duration="3" state="rrGG" /><phase duration="42" state="rrGG" /><phase duration="3" state="rrGG" /></tlLogic><tlLogic id="1692433938" type="static" programID="1" offset="0"><phase duration="42" state="GGGG" /><phase duration="3" state="rrGG" /><phase duration="42" state="rrGG" /><phase duration="3" state="rrGG" /></tlLogic><tlLogic id="1692433940" type="static" programID="1" offset="0"><phase duration="42" state="GGGG" /><phase duration="3" state="rrGG" /><phase duration="42" state="rrGG" /><phase duration="3" state="rrGG" /></tlLogic><tlLogic id="1692433941" type="static" programID="1" offset="0"><phase duration="42" state="GGGG" /><phase duration="3" state="rrGG" /><phase duration="42" state="rrGG" /><phase duration="3" state="rrGG" /></tlLogic><tlLogic id="1773084402" type="static" programID="1" offset="0"><phase duration="38" state="GGGGGGGGGGG" /><phase duration="3" state="GGGrrrrGGGG" /><phase duration="6" state="GGGGGGGGGGG" /><phase duration="3" state="rrrrrrrGGGG" /><phase duration="37" state="rrrrrrrGGGG" /><phase duration="3" state="rrrrrrrGGGG" /></tlLogic><tlLogic id="2324482224" type="static" programID="1" offset="0"><phase duration="82" state="GGGGGG" /><phase duration="3" state="rrrrGG" /><phase duration="5" state="rrrrGG" /></tlLogic><tlLogic id="2340051732" type="static" programID="1" offset="0"><phase duration="79" state="GrGG" /><phase duration="6" state="rrGG" /><phase duration="5" state="rrGG" /></tlLogic><tlLogic id="246650840" type="static" programID="1" offset="0"><phase duration="82" state="GGGGG" /><phase duration="3" state="rrrGG" /><phase duration="5" state="rrrGG" /></tlLogic><tlLogic id="248607283" type="static" programID="1" offset="0"><phase duration="25" state="rrrrGG" /><phase duration="5" state="rrrrGG" /><phase duration="25" state="rrGGGG" /><phase duration="5" state="rrrrGG" /><phase duration="25" state="GGrrGG" /><phase duration="5" state="rrrrGG" /></tlLogic><tlLogic id="272194254" type="static" programID="1" offset="0"><phase duration="27" state="rrGGGG" /><phase duration="3" state="rrrrGG" /><phase duration="27" state="GGrrGG" /><phase duration="3" state="rrrrGG" /><phase duration="27" state="rrrrGG" /><phase duration="3" state="rrrrGG" /></tlLogic><tlLogic id="272195270" type="static" programID="1" offset="0"><phase duration="42" state="GGGGGGGG" /><phase duration="3" state="rrrrrGGG" /><phase duration="42" state="rrrrrGGG" /><phase duration="3" state="rrrrrGGG" /></tlLogic><tlLogic id="272195271" type="static" programID="1" offset="0"><phase duration="38" state="rrrrGGGGGGGG" /><phase duration="3" state="rrrrGGGGGGGG" /><phase duration="6" state="rrrrGGGGGGGG" /><phase duration="3" state="rrrrrrrrGGGG" /><phase duration="37" state="GGGGGGGGGGGG" /><phase duration="3" state="rrrrrrrrGGGG" /></tlLogic><tlLogic id="279151954" type="static" programID="1" offset="0"><phase duration="42" state="GGGrrrGGGG" /><phase duration="3" state="rrrrrrGGGG" /><phase duration="42" state="rrrGGGGGGG" /><phase duration="3" state="rrrrrrGGGG" /></tlLogic><tlLogic id="2821304136" type="static" programID="1" offset="0"><phase duration="42" state="GGGG" /><phase duration="3" state="rrGG" /><phase duration="42" state="rrGG" /><phase duration="3" state="rrGG" /></tlLogic><tlLogic id="2821304137" type="static" programID="1" offset="0"><phase duration="42" state="GGGGGGGGG" /><phase duration="3" state="rrrrrrGGG" /><phase duration="42" state="rrrGGGGGG" /><phase duration="3" state="rrrrrrGGG" /></tlLogic><tlLogic id="2821304138" type="static" programID="1" offset="0"><phase duration="42" state="GGGGGG" /><phase duration="3" state="GGrrGG" /><phase duration="42" state="GGrrGG" /><phase duration="3" state="GGrrGG" /></tlLogic><tlLogic id="3212472963" type="static" programID="1" offset="0"><phase duration="42" state="GGG" /><phase duration="3" state="rrG" /><phase duration="42" state="rrG" /><phase duration="3" state="rrG" /></tlLogic><tlLogic id="3350498747" type="static" programID="1" offset="0"><phase duration="42" state="GGGrrrrGGGG" /><phase duration="3" state="rrrrrrrGGGG" /><phase duration="42" state="rrrGGGGGGGG" /><phase duration="3" state="rrrrrrrGGGG" /></tlLogic><tlLogic id="3567807957" type="static" programID="1" offset="0"><phase duration="42" state="GGGG" /><phase duration="3" state="rrGG" /><phase duration="42" state="rrGG" /><phase duration="3" state="rrGG" /></tlLogic><tlLogic id="3584752508" type="static" programID="1" offset="0"><phase duration="42" state="GGGG" /><phase duration="3" state="rrGG" /><phase duration="42" state="rrGG" /><phase duration="3" state="rrGG" /></tlLogic><tlLogic id="3630219668" type="static" programID="1" offset="0"><phase duration="42" state="GG" /><phase duration="3" state="rG" /><phase duration="42" state="rG" /><phase duration="3" state="rG" /></tlLogic><tlLogic id="3786901738" type="static" programID="1" offset="0"><phase duration="42" state="GGGGG" /><phase duration="3" state="rrrGG" /><phase duration="42" state="rGGGG" /><phase duration="3" state="rrrGG" /></tlLogic><tlLogic id="4012724171" type="static" programID="1" offset="0"><phase duration="42" state="GGGGGGGG" /><phase duration="3" state="rrrrrGGG" /><phase duration="42" state="rrrrrGGG" /><phase duration="3" state="rrrrrGGG" /></tlLogic><tlLogic id="4121409402" type="static" programID="1" offset="0"><phase duration="42" state="GGGGGG" /><phase duration="3" state="rrrrGG" /><phase duration="42" state="rrrrGG" /><phase duration="3" state="rrrrGG" /></tlLogic><tlLogic id="4149936235" type="static" programID="1" offset="0"><phase duration="42" state="GGGGGGG" /><phase duration="3" state="rrrrGGG" /><phase duration="42" state="rrrrGGG" /><phase duration="3" state="rrrrGGG" /></tlLogic><tlLogic id="42421889" type="static" programID="1" offset="0"><phase duration="42" state="GGrrGG" /><phase duration="3" state="rrrrGG" /><phase duration="42" state="rrGGGG" /><phase duration="3" state="rrrrGG" /></tlLogic><tlLogic id="42422026" type="static" programID="1" offset="0"><phase duration="42" state="GGGrrrGGG" /><phase duration="3" state="rrrrrrGGG" /><phase duration="42" state="rrrGGGGGG" /><phase duration="3" state="rrrrrrGGG" /></tlLogic><tlLogic id="42422035" type="static" programID="1" offset="0"><phase duration="42" state="GGGGGGGGGG" /><phase duration="3" state="rrrGGGGGGG" /><phase duration="42" state="rrrGGGGGGG" /><phase duration="3" state="rrrGGGGGGG" /></tlLogic><tlLogic id="42422038" type="static" programID="1" offset="0"><phase duration="42" state="GGGGG" /><phase duration="3" state="rGGGG" /><phase duration="42" state="rGGGG" /><phase duration="3" state="rGGGG" /></tlLogic><tlLogic id="42422042" type="static" programID="1" offset="0"><phase duration="42" state="GGGGGGGG" /><phase duration="3" state="GGrrrGGG" /><phase duration="42" state="GGGGGGGG" /><phase duration="3" state="GGrrrGGG" /></tlLogic><tlLogic id="42424408" type="static" programID="1" offset="0"><phase duration="42" state="GGGGGGGGGGGGG" /><phase duration="3" state="rrrrrrrrGGGGG" /><phase duration="42" state="rrrrGGGGGGGGG" /><phase duration="3" state="rrrrrrrrGGGGG" /></tlLogic><tlLogic id="42424610" type="static" programID="1" offset="0"><phase duration="42" state="rrrGGGGGGGG" /><phase duration="3" state="rrrGGGGGGGG" /><phase duration="41" state="GGGGGGGGGGG" /><phase duration="3" state="rrrrrrrGGGG" /><phase duration="1" state="rrrrrrrGGGG" /></tlLogic><tlLogic id="42424864" type="static" programID="1" offset="0"><phase duration="42" state="GGG" /><phase duration="3" state="rrG" /><phase duration="42" state="rrG" /><phase duration="3" state="rrG" /></tlLogic><tlLogic id="42425955" type="static" programID="1" offset="0"><phase duration="82" state="GGGGGGG" /><phase duration="3" state="rrrrGGG" /><phase duration="5" state="rrrrGGG" /></tlLogic><tlLogic id="42426747" type="static" programID="1" offset="0"><phase duration="42" state="GGGrrrGGGG" /><phase duration="3" state="rrrrrrGGGG" /><phase duration="42" state="rrrGGGGGGG" /><phase duration="3" state="rrrrrrGGGG" /></tlLogic><tlLogic id="42427242" type="static" programID="1" offset="0"><phase duration="42" state="GGGGGG" /><phase duration="3" state="rrrrGG" /><phase duration="42" state="rrrrGG" /><phase duration="3" state="rrrrGG" /></tlLogic><tlLogic id="42427290" type="static" programID="1" offset="0"><phase duration="42" state="GrG" /><phase duration="3" state="rrG" /><phase duration="42" state="rGG" /><phase duration="3" state="rrG" /></tlLogic><tlLogic id="42427300" type="static" programID="1" offset="0"><phase duration="38" state="GGGrrrGGG" /><phase duration="3" state="rrrrrrGGG" /><phase duration="6" state="rrrrrrGGG" /><phase duration="3" state="rrrrrrGGG" /><phase duration="37" state="rrrGGGGGG" /><phase duration="3" state="rrrrrrGGG" /></tlLogic><tlLogic id="42427305" type="static" programID="1" offset="0"><phase duration="42" state="GGGG" /><phase duration="3" state="rrGG" /><phase duration="42" state="rrGG" /><phase duration="3" state="rrGG" /></tlLogic><tlLogic id="42427346" type="static" programID="1" offset="0"><phase duration="82" state="GGG" /><phase duration="3" state="rrG" /><phase duration="5" state="rrG" /></tlLogic><tlLogic id="42427352" type="static" programID="1" offset="0"><phase duration="42" state="GGrrGG" /><phase duration="3" state="rrrrGG" /><phase duration="42" state="rrGGGG" /><phase duration="3" state="rrrrGG" /></tlLogic><tlLogic id="42427374" type="static" programID="1" offset="0"><phase duration="42" state="GGGGGG" /><phase duration="3" state="rrrrGG" /><phase duration="42" state="rrrrGG" /><phase duration="3" state="rrrrGG" /></tlLogic><tlLogic id="42427381" type="static" programID="1" offset="0"><phase duration="42" state="GGGGGGG" /><phase duration="3" state="rrrrGGG" /><phase duration="42" state="rrrrGGG" /><phase duration="3" state="rrrrGGG" /></tlLogic><tlLogic id="42427423" type="static" programID="1" offset="0"><phase duration="42" state="GGGGGGGG" /><phase duration="3" state="rrrrrGGG" /><phase duration="42" state="rrrrrGGG" /><phase duration="3" state="rrrrrGGG" /></tlLogic><tlLogic id="42427426" type="static" programID="1" offset="0"><phase duration="42" state="GGGGGGGG" /><phase duration="3" state="rrrrrGGG" /><phase duration="42" state="rrrrrGGG" /><phase duration="3" state="rrrrrGGG" /></tlLogic><tlLogic id="42427477" type="static" programID="1" offset="0"><phase duration="42" state="GGGGGGGG" /><phase duration="3" state="rrrrrGGG" /><phase duration="42" state="rrrrrGGG" /><phase duration="3" state="rrrrrGGG" /></tlLogic><tlLogic id="42427483" type="static" programID="1" offset="0"><phase duration="42" state="GGGGGGGGGG" /><phase duration="3" state="rrrrrrGGGG" /><phase duration="42" state="rrrrrrGGGG" /><phase duration="3" state="rrrrrrGGGG" /></tlLogic><tlLogic id="42427742" type="static" programID="1" offset="0"><phase duration="42" state="GGrrGG" /><phase duration="3" state="rrrrGG" /><phase duration="42" state="rrGGGG" /><phase duration="3" state="rrrrGG" /></tlLogic><tlLogic id="42427744" type="static" programID="1" offset="0"><phase duration="42" state="GGGGrrrrGGGG" /><phase duration="3" state="rrrrrrrrGGGG" /><phase duration="42" state="rrrrGGGGGGGG" /><phase duration="3" state="rrrrrrrrGGGG" /></tlLogic><tlLogic id="42427786" type="static" programID="1" offset="0"><phase duration="42" state="GGGG" /><phase duration="3" state="rrGG" /><phase duration="42" state="rrGG" /><phase duration="3" state="rrGG" /></tlLogic><tlLogic id="42427787" type="static" programID="1" offset="0"><phase duration="42" state="GGGG" /><phase duration="3" state="rrGG" /><phase duration="42" state="rrGG" /><phase duration="3" state="rrGG" /></tlLogic><tlLogic id="42427797" type="static" programID="1" offset="0"><phase duration="42" state="GGGGGGGG" /><phase duration="3" state="rrrrrGGG" /><phase duration="42" state="rrGGGGGG" /><phase duration="3" state="rrrrrGGG" /></tlLogic><tlLogic id="42427805" type="static" programID="1" offset="0"><phase duration="42" state="GGGGGGG" /><phase duration="3" state="rrrrGGG" /><phase duration="42" state="rrrrGGG" /><phase duration="3" state="rrrrGGG" /></tlLogic><tlLogic id="42427812" type="static" programID="1" offset="0"><phase duration="42" state="GGGGGGGG" /><phase duration="3" state="rrrrrGGG" /><phase duration="42" state="rrGGGGGG" /><phase duration="3" state="rrrrrGGG" /></tlLogic><tlLogic id="42428170" type="static" programID="1" offset="0"><phase duration="82" state="GG" /><phase duration="3" state="rG" /><phase duration="5" state="rG" /></tlLogic><tlLogic id="42428174" type="static" programID="1" offset="0"><phase duration="82" state="GG" /><phase duration="3" state="rG" /><phase duration="5" state="rG" /></tlLogic><tlLogic id="42428179" type="static" programID="1" offset="0"><phase duration="27" state="GrG" /><phase duration="3" state="rrG" /><phase duration="27" state="rGG" /><phase duration="3" state="rrG" /><phase duration="27" state="rrG" /><phase duration="3" state="rrG" /></tlLogic><tlLogic id="42428198" type="static" programID="1" offset="0"><phase duration="42" state="GGGG" /><phase duration="3" state="rrGG" /><phase duration="42" state="rrGG" /><phase duration="3" state="rrGG" /></tlLogic><tlLogic id="42428206" type="static" programID="1" offset="0"><phase duration="42" state="GGGG" /><phase duration="3" state="rrGG" /><phase duration="42" state="rrGG" /><phase duration="3" state="rrGG" /></tlLogic><tlLogic id="42428220" type="static" programID="1" offset="0"><phase duration="42" state="GrG" /><phase duration="3" state="rrG" /><phase duration="42" state="rGG" /><phase duration="3" state="rrG" /></tlLogic><tlLogic id="42428223" type="static" programID="1" offset="0"><phase duration="42" state="GGGG" /><phase duration="3" state="rrGG" /><phase duration="42" state="rrGG" /><phase duration="3" state="rrGG" /></tlLogic><tlLogic id="42428227" type="static" programID="1" offset="0"><phase duration="42" state="GGGG" /><phase duration="3" state="rrGG" /><phase duration="42" state="rrGG" /><phase duration="3" state="rrGG" /></tlLogic><tlLogic id="42428232" type="static" programID="1" offset="0"><phase duration="42" state="GGGG" /><phase duration="3" state="rrGG" /><phase duration="42" state="rrGG" /><phase duration="3" state="rrGG" /></tlLogic><tlLogic id="42428368" type="static" programID="1" offset="0"><phase duration="42" state="GGGG" /><phase duration="3" state="rrGG" /><phase duration="42" state="rrGG" /><phase duration="3" state="rrGG" /></tlLogic><tlLogic id="42428371" type="static" programID="1" offset="0"><phase duration="42" state="GGG" /><phase duration="3" state="rrG" /><phase duration="42" state="rrG" /><phase duration="3" state="rrG" /></tlLogic><tlLogic id="42428374" type="static" programID="1" offset="0"><phase duration="42" state="GGGGG" /><phase duration="3" state="rrrGG" /><phase duration="42" state="rrrGG" /><phase duration="3" state="rrrGG" /></tlLogic><tlLogic id="42428385" type="static" programID="1" offset="0"><phase duration="42" state="GGGGGGG" /><phase duration="3" state="rrrrGGG" /><phase duration="42" state="rrrrGGG" /><phase duration="3" state="rrrrGGG" /></tlLogic><tlLogic id="42428402" type="static" programID="1" offset="0"><phase duration="42" state="GGGGGGG" /><phase duration="3" state="rrrrGGG" /><phase duration="42" state="rrrrGGG" /><phase duration="3" state="rrrrGGG" /></tlLogic><tlLogic id="42428405" type="static" programID="1" offset="0"><phase duration="27" state="rrGGGG" /><phase duration="3" state="rrGGGG" /><phase duration="27" state="GGGGGG" /><phase duration="3" state="rrrrGG" /><phase duration="27" state="rrrrGG" /><phase duration="3" state="rrrrGG" /></tlLogic><tlLogic id="42428408" type="static" programID="1" offset="0"><phase duration="82" state="GGG" /><phase duration="3" state="rrG" /><phase duration="5" state="rrG" /></tlLogic><tlLogic id="42428411" type="static" programID="1" offset="0"><phase duration="42" state="rrrGGGGGGG" /><phase duration="3" state="rrrrrrGGGG" /><phase duration="42" state="GGGGGGGGGG" /><phase duration="3" state="rrrrrrGGGG" /></tlLogic><tlLogic id="42428420" type="static" programID="1" offset="0"><phase duration="42" state="GGGGG" /><phase duration="3" state="rrrGG" /><phase duration="42" state="rrrGG" /><phase duration="3" state="rrrGG" /></tlLogic><tlLogic id="42428425" type="static" programID="1" offset="0"><phase duration="42" state="GGGGG" /><phase duration="3" state="rrrGG" /><phase duration="42" state="rrrGG" /><phase duration="3" state="rrrGG" /></tlLogic><tlLogic id="42428428" type="static" programID="1" offset="0"><phase duration="42" state="GGGGG" /><phase duration="3" state="rrrGG" /><phase duration="42" state="rrrGG" /><phase duration="3" state="rrrGG" /></tlLogic><tlLogic id="42428433" type="static" programID="1" offset="0"><phase duration="42" state="rrrrGGGGGGGG" /><phase duration="3" state="rrrrrrrrGGGG" /><phase duration="42" state="GGGGrrrrGGGG" /><phase duration="3" state="rrrrrrrrGGGG" /></tlLogic><tlLogic id="42428434" type="static" programID="1" offset="0"><phase duration="42" state="GGGGGGGG" /><phase duration="3" state="rrrrrGGG" /><phase duration="42" state="rrrrrGGG" /><phase duration="3" state="rrrrrGGG" /></tlLogic><tlLogic id="42428436" type="static" programID="1" offset="0"><phase duration="42" state="GGGGG" /><phase duration="3" state="rrrGG" /><phase duration="42" state="rrrGG" /><phase duration="3" state="rrrGG" /></tlLogic><tlLogic id="42428441" type="static" programID="1" offset="0"><phase duration="42" state="GGGGG" /><phase duration="3" state="rrrGG" /><phase duration="42" state="rrrGG" /><phase duration="3" state="rrrGG" /></tlLogic><tlLogic id="42428444" type="static" programID="1" offset="0"><phase duration="42" state="GGGGG" /><phase duration="3" state="rrrGG" /><phase duration="42" state="rrrGG" /><phase duration="3" state="rrrGG" /></tlLogic><tlLogic id="42428454" type="static" programID="1" offset="0"><phase duration="82" state="GGG" /><phase duration="3" state="rrG" /><phase duration="5" state="rrG" /></tlLogic><tlLogic id="42428458" type="static" programID="1" offset="0"><phase duration="42" state="GGGGG" /><phase duration="3" state="rrrGG" /><phase duration="42" state="rrrGG" /><phase duration="3" state="rrrGG" /></tlLogic><tlLogic id="42428460" type="static" programID="1" offset="0"><phase duration="42" state="GGGGG" /><phase duration="3" state="rrrGG" /><phase duration="42" state="rrrGG" /><phase duration="3" state="rrrGG" /></tlLogic><tlLogic id="42428464" type="static" programID="1" offset="0"><phase duration="82" state="GGG" /><phase duration="3" state="rrG" /><phase duration="5" state="rrG" /></tlLogic><tlLogic id="42428468" type="static" programID="1" offset="0"><phase duration="42" state="GGG" /><phase duration="3" state="rrG" /><phase duration="42" state="rrG" /><phase duration="3" state="rrG" /></tlLogic><tlLogic id="42428471" type="static" programID="1" offset="0"><phase duration="42" state="GGGGG" /><phase duration="3" state="rrrGG" /><phase duration="42" state="rrrGG" /><phase duration="3" state="rrrGG" /></tlLogic><tlLogic id="42428473" type="static" programID="1" offset="0"><phase duration="42" state="GGGGGG" /><phase duration="3" state="rrrrGG" /><phase duration="42" state="rrGGGG" /><phase duration="3" state="rrrrGG" /></tlLogic><tlLogic id="42428476" type="static" programID="1" offset="0"><phase duration="42" state="GGGGG" /><phase duration="3" state="rrrGG" /><phase duration="42" state="rrrGG" /><phase duration="3" state="rrrGG" /></tlLogic><tlLogic id="42428483" type="static" programID="1" offset="0"><phase duration="82" state="GGG" /><phase duration="3" state="rrG" /><phase duration="5" state="rrG" /></tlLogic><tlLogic id="42428489" type="static" programID="1" offset="0"><phase duration="42" state="GGGGG" /><phase duration="3" state="rrrGG" /><phase duration="42" state="rrrGG" /><phase duration="3" state="rrrGG" /></tlLogic><tlLogic id="42428491" type="static" programID="1" offset="0"><phase duration="42" state="GGGGG" /><phase duration="3" state="rrrGG" /><phase duration="42" state="rrrGG" /><phase duration="3" state="rrrGG" /></tlLogic><tlLogic id="42428524" type="static" programID="1" offset="0"><phase duration="82" state="GG" /><phase duration="3" state="rG" /><phase duration="5" state="rG" /></tlLogic><tlLogic id="42428529" type="static" programID="1" offset="0"><phase duration="42" state="GG" /><phase duration="3" state="rG" /><phase duration="42" state="rG" /><phase duration="3" state="rG" /></tlLogic><tlLogic id="42429373" type="static" programID="1" offset="0"><phase duration="42" state="GGGGG" /><phase duration="3" state="rrrGG" /><phase duration="42" state="rrrGG" /><phase duration="3" state="rrrGG" /></tlLogic><tlLogic id="42429374" type="static" programID="1" offset="0"><phase duration="42" state="GGrrGG" /><phase duration="3" state="rrrrGG" /><phase duration="42" state="rrGGGG" /><phase duration="3" state="rrrrGG" /></tlLogic><tlLogic id="42429375" type="static" programID="1" offset="0"><phase duration="42" state="GGGGGGG" /><phase duration="3" state="rrrrGGG" /><phase duration="42" state="rrrrGGG" /><phase duration="3" state="rrrrGGG" /></tlLogic><tlLogic id="42429378" type="static" programID="1" offset="0"><phase duration="42" state="rGGGG" /><phase duration="3" state="rrrGG" /><phase duration="42" state="GGGGG" /><phase duration="3" state="rrrGG" /></tlLogic><tlLogic id="42429394" type="static" programID="1" offset="0"><phase duration="42" state="GGGGG" /><phase duration="3" state="rrrGG" /><phase duration="42" state="rrrGG" /><phase duration="3" state="rrrGG" /></tlLogic><tlLogic id="42429562" type="static" programID="1" offset="0"><phase duration="42" state="GGrrGG" /><phase duration="3" state="rrrrGG" /><phase duration="42" state="rrGGGG" /><phase duration="3" state="rrrrGG" /></tlLogic><tlLogic id="42429563" type="static" programID="1" offset="0"><phase duration="42" state="GGGGG" /><phase duration="3" state="rrrGG" /><phase duration="42" state="rrrGG" /><phase duration="3" state="rrrGG" /></tlLogic><tlLogic id="42429565" type="static" programID="1" offset="0"><phase duration="42" state="rrGGGG" /><phase duration="3" state="rrrrGG" /><phase duration="42" state="GGrrGG" /><phase duration="3" state="rrrrGG" /></tlLogic><tlLogic id="42429641" type="static" programID="1" offset="0"><phase duration="42" state="GGGG" /><phase duration="3" state="rrGG" /><phase duration="42" state="rrGG" /><phase duration="3" state="rrGG" /></tlLogic><tlLogic id="42429643" type="static" programID="1" offset="0"><phase duration="42" state="GGGrrrGGG" /><phase duration="3" state="rrrrrrGGG" /><phase duration="42" state="rrrGGGGGG" /><phase duration="3" state="rrrrrrGGG" /></tlLogic><tlLogic id="42429657" type="static" programID="1" offset="0"><phase duration="42" state="GGGGGG" /><phase duration="3" state="rrrrGG" /><phase duration="42" state="rrrrGG" /><phase duration="3" state="rrrrGG" /></tlLogic><tlLogic id="42429659" type="static" programID="1" offset="0"><phase duration="42" state="GGGG" /><phase duration="3" state="rrGG" /><phase duration="42" state="rrGG" /><phase duration="3" state="rrGG" /></tlLogic><tlLogic id="42429661" type="static" programID="1" offset="0"><phase duration="42" state="GGGGGG" /><phase duration="3" state="rrrrGG" /><phase duration="42" state="rrrrGG" /><phase duration="3" state="rrrrGG" /></tlLogic><tlLogic id="42429662" type="static" programID="1" offset="0"><phase duration="42" state="GGGGGGG" /><phase duration="3" state="rrrrGGG" /><phase duration="42" state="rrrrGGG" /><phase duration="3" state="rrrrGGG" /></tlLogic><tlLogic id="42429663" type="static" programID="1" offset="0"><phase duration="42" state="GGGG" /><phase duration="3" state="rrGG" /><phase duration="42" state="rrGG" /><phase duration="3" state="rrGG" /></tlLogic><tlLogic id="42429664" type="static" programID="1" offset="0"><phase duration="42" state="GGGGGGGG" /><phase duration="3" state="rrrrrGGG" /><phase duration="42" state="rrrrrGGG" /><phase duration="3" state="rrrrrGGG" /></tlLogic><tlLogic id="42429806" type="static" programID="1" offset="0"><phase duration="42" state="GGGG" /><phase duration="3" state="rrGG" /><phase duration="42" state="rrGG" /><phase duration="3" state="rrGG" /></tlLogic><tlLogic id="42429812" type="static" programID="1" offset="0"><phase duration="42" state="GGGGGG" /><phase duration="3" state="rrGGGG" /><phase duration="42" state="rrGGGG" /><phase duration="3" state="rrGGGG" /></tlLogic><tlLogic id="42429832" type="static" programID="1" offset="0"><phase duration="42" state="GGGGG" /><phase duration="3" state="rrrGG" /><phase duration="42" state="rrrGG" /><phase duration="3" state="rrrGG" /></tlLogic><tlLogic id="42429844" type="static" programID="1" offset="0"><phase duration="82" state="GGGGGGGG" /><phase duration="3" state="rrrrrGGG" /><phase duration="5" state="rrrrrGGG" /></tlLogic><tlLogic id="42429874" type="static" programID="1" offset="0"><phase duration="42" state="GGGGGGGG" /><phase duration="3" state="rrrrrGGG" /><phase duration="42" state="rrrrrGGG" /><phase duration="3" state="rrrrrGGG" /></tlLogic><tlLogic id="42429876" type="static" programID="1" offset="0"><phase duration="42" state="GGGGGGG" /><phase duration="3" state="rrrrGGG" /><phase duration="42" state="rrrrGGG" /><phase duration="3" state="rrrrGGG" /></tlLogic><tlLogic id="42430004" type="static" programID="1" offset="0"><phase duration="42" state="GGrrrGGG" /><phase duration="3" state="rrrrrGGG" /><phase duration="42" state="rrGGGGGG" /><phase duration="3" state="rrrrrGGG" /></tlLogic><tlLogic id="42430007" type="static" programID="1" offset="0"><phase duration="42" state="GGGGG" /><phase duration="3" state="rrrGG" /><phase duration="42" state="rrrGG" /><phase duration="3" state="rrrGG" /></tlLogic><tlLogic id="42430009" type="static" programID="1" offset="0"><phase duration="82" state="GG" /><phase duration="3" state="rG" /><phase duration="5" state="rG" /></tlLogic><tlLogic id="42430030" type="static" programID="1" offset="0"><phase duration="42" state="GGGrrrGGG" /><phase duration="3" state="rrrrrrGGG" /><phase duration="42" state="rrrGGGGGG" /><phase duration="3" state="rrrrrrGGG" /></tlLogic><tlLogic id="42430034" type="static" programID="1" offset="0"><phase duration="42" state="rrrGGGGGG" /><phase duration="3" state="rrrrrrGGG" /><phase duration="42" state="GGGrrrGGG" /><phase duration="3" state="rrrrrrGGG" /></tlLogic><tlLogic id="42430038" type="static" programID="1" offset="0"><phase duration="42" state="GGGrrrGGG" /><phase duration="3" state="rrrrrrGGG" /><phase duration="42" state="rrrGGGGGG" /><phase duration="3" state="rrrrrrGGG" /></tlLogic><tlLogic id="42430041" type="static" programID="1" offset="0"><phase duration="42" state="GGGrrrGGG" /><phase duration="3" state="rrrrrrGGG" /><phase duration="42" state="rrrGGGGGG" /><phase duration="3" state="rrrrrrGGG" /></tlLogic><tlLogic id="42430044" type="static" programID="1" offset="0"><phase duration="42" state="GGGGGGG" /><phase duration="3" state="rrrrGGG" /><phase duration="42" state="rrrrGGG" /><phase duration="3" state="rrrrGGG" /></tlLogic><tlLogic id="42430122" type="static" programID="1" offset="0"><phase duration="42" state="GGGGGGG" /><phase duration="3" state="rrrrGGG" /><phase duration="42" state="rrrrGGG" /><phase duration="3" state="rrrrGGG" /></tlLogic><tlLogic id="42430126" type="static" programID="1" offset="0"><phase duration="41" state="GGGGGGGGG" /><phase duration="3" state="rrrrrrGGG" /><phase duration="1" state="rrrrrrGGG" /><phase duration="41" state="rrrGGGGGG" /><phase duration="3" state="rrrrrrGGG" /><phase duration="1" state="rrrrrrGGG" /></tlLogic><tlLogic id="42430143" type="static" programID="1" offset="0"><phase duration="42" state="GGGGGGGGGG" /><phase duration="3" state="rrrrrrGGGG" /><phase duration="42" state="rrrGGGGGGG" /><phase duration="3" state="rrrrrrGGGG" /></tlLogic><tlLogic id="42430154" type="static" programID="1" offset="0"><phase duration="42" state="GGGGGGG" /><phase duration="3" state="rrrrGGG" /><phase duration="42" state="rrrrGGG" /><phase duration="3" state="rrrrGGG" /></t