<?xml version="1.0" encoding="UTF-8"?>
<additional><tlLogic id="11038072110" type="static" programID="0" offset="35"><phase duration="42" state="GggGGgrrr" /><phase duration="3" state="yyyyyyrrr" /><phase duration="2" state="rrrrrrrrr" /><phase duration="42" state="rrrrrrGGG" /><phase duration="3" state="rrrrrryyy" /></tlLogic><tlLogic id="12554607194" type="static" programID="0" offset="20"><phase duration="82" state="GGG" /><phase duration="3" state="yyy" /><phase duration="5" state="rrr" /></tlLogic><tlLogic id="1431790464" type="static" programID="0" offset="14"><phase duration="42" state="GGGrrr" /><phase duration="3" state="yyyrrr" /><phase duration="2" state="rrrrrr" /><phase duration="42" state="rrrGGG" /><phase duration="3" state="rrryyy" /></tlLogic><tlLogic id="1431790465" type="static" programID="0" offset="14"><phase duration="42" state="GGrrrr" /><phase duration="3" state="yyrrrr" /><phase duration="2" state="rrrrrr" /><phase duration="42" state="rrGGGG" /><phase duration="3" state="rryyyy" /></tlLogic><tlLogic id="1692433919" type="static" programID="0" offset="5"><phase duration="42" state="GGGGrr" /><phase duration="3" state="yyyyrr" /><phase duration="2" state="rrrrrr" /><phase duration="42" state="rrrrGG" /><phase duration="3" state="rrrryy" /></tlLogic><tlLogic id="1692433928" type="static" programID="0" offset="17"><phase duration="42" state="GggGGgrrr" /><phase duration="3" state="yyyyyyrrr" /><phase duration="2" state="rrrrrrrrr" /><phase duration="42" state="rrrrrrGGG" /><phase duration="3" state="rrrrrryyy" /></tlLogic><tlLogic id="1692433932" type="static" programID="0" offset="29"><phase duration="42" state="GGrr" /><phase duration="3" state="yyrr" /><phase duration="2" state="rrrr" /><phase duration="42" state="rrGG" /><phase duration="3" state="rryy" /></tlLogic><tlLogic id="1692433935" type="static" programID="0" offset="16"><phase duration="42" state="GGrr" /><phase duration="3" state="yyrr" /><phase duration="2" state="rrrr" /><phase duration="42" state="rrGG" /><phase duration="3" state="rryy" /></tlLogic><tlLogic id="1692433936" type="static" programID="0" offset="25"><phase duration="42" state="GGrr" /><phase duration="3" state="yyrr" /><phase duration="2" state="rrrr" /><phase duration="42" state="rrGG" /><phase duration="3" state="rryy" /></tlLogic><tlLogic id="1692433938" type="static" programID="0" offset="1"><phase duration="42" state="GGrr" /><phase duration="3" state="yyrr" /><phase duration="2" state="rrrr" /><phase duration="42" state="rrGG" /><phase duration="3" state="rryy" /></tlLogic><tlLogic id="1692433940" type="static" programID="0" offset="3"><phase duration="42" state="GGrr" /><phase duration="3" state="yyrr" /><phase duration="2" state="rrrr" /><phase duration="42" state="rrGG" /><phase duration="3" state="rryy" /></tlLogic><tlLogic id="1692433941" type="static" programID="0" offset="7"><phase duration="42" state="GGrr" /><phase duration="3" state="yyrr" /><phase duration="2" state="rrrr" /><phase duration="42" state="rrGG" /><phase duration="3" state="rryy" /></tlLogic><tlLogic id="1773084402" type="static" programID="0" offset="35"><phase duration="38" state="GGggGGGgrrr" /><phase duration="3" state="GGggyyyyrrr" /><phase duration="2" state="rrrrrrrrrrr" /><phase duration="6" state="GGGGrrrrrrr" /><phase duration="3" state="yyyyrrrrrrr" /><phase duration="2" state="rrrrrrrrrrr" /><phase duration="37" state="rrrrrrrrGGG" /><phase duration="3" state="rrrrrrrryyy" /></tlLogic><tlLogic id="2324482224" type="static" programID="0" offset="35"><phase duration="82" state="GggGGg" /><phase duration="3" state="yyyyyy" /><phase duration="5" state="rrrrrr" /></tlLogic><tlLogic id="2340051732" type="static" programID="0" offset="17"><phase duration="79" state="GgGg" /><phase duration="6" state="yyyy" /><phase duration="5" state="rrrr" /></tlLogic><tlLogic id="246650840" type="static" programID="0" offset="32"><phase duration="82" state="GGGGG" /><phase duration="3" state="yyyyy" /><phase duration="5" state="rrrrr" /></tlLogic><tlLogic id="248607283" type="static" programID="0" offset="0"><phase duration="25" state="rrrrGG" /><phase duration="5" state="rrrryy" /><phase duration="2" state="rrrrrr" /><phase duration="25" state="rrGGrr" /><phase duration="5" state="rryyrr" /><phase duration="2" state="rrrrrr" /><phase duration="25" state="GGrrrr" /><phase duration="5" state="yyrrrr" /></tlLogic><tlLogic id="272194254" type="static" programID="0" offset="29"><phase duration="27" state="rrGGrr" /><phase duration="3" state="rryyrr" /><phase duration="2" state="rrrrrr" /><phase duration="27" state="GGrrrr" /><phase duration="3" state="yyrrrr" /><phase duration="2" state="rrrrrr" /><phase duration="27" state="rrrrGG" /><phase duration="3" state="rrrryy" /></tlLogic><tlLogic id="272195270" type="static" programID="0" offset="30"><phase duration="42" state="GGGGGrrr" /><phase duration="3" state="yyyyyrrr" /><phase duration="2" state="rrrrrrrr" /><phase duration="42" state="rrrrrGGG" /><phase duration="3" state="rrrrryyy" /></tlLogic><tlLogic id="272195271" type="static" programID="0" offset="4"><phase duration="38" state="rrrrrGggGGGg" /><phase duration="3" state="rrrrrGggyyyy" /><phase duration="2" state="rrrrrrrrrrrr" /><phase duration="6" state="rrrrrGGGrrrr" /><phase duration="3" state="rrrrryyyrrrr" /><phase duration="2" state="rrrrrrrrrrrr" /><phase duration="37" state="GGGGGrrrrrrr" /><phase duration="3" state="yyyyyrrrrrrr" /></tlLogic><tlLogic id="279151954" type="static" programID="0" offset="25"><phase duration="42" state="GGggrrrGGg" /><phase duration="3" state="yyyyrrrGyy" /><phase duration="2" state="rrrrrrrrrr" /><phase duration="42" state="rrrrGGgGrr" /><phase duration="3" state="rrrryyyGrr" /></tlLogic><tlLogic id="2821304136" type="static" programID="0" offset="23"><phase duration="42" state="GGGr" /><phase duration="3" state="yyyr" /><phase duration="2" state="rrrr" /><phase duration="42" state="rrrG" /><phase duration="3" state="rrry" /></tlLogic><tlLogic id="2821304137" type="static" programID="0" offset="33"><phase duration="42" state="GGGGGrrrr" /><phase duration="3" state="yyyyyrrrr" /><phase duration="2" state="rrrrrrrrr" /><phase duration="42" state="rrrrrGGGG" /><phase duration="3" state="rrrrryyyy" /></tlLogic><tlLogic id="2821304138" type="static" programID="0" offset="26"><phase duration="42" state="GGGGrr" /><phase duration="3" state="Gyyyrr" /><phase duration="2" state="rrrrrr" /><phase duration="42" state="GrrrGg" /><phase duration="3" state="Grrryy" /></tlLogic><tlLogic id="3212472963" type="static" programID="0" offset="13"><phase duration="42" state="GGr" /><phase duration="3" state="yyr" /><phase duration="2" state="rrr" /><phase duration="42" state="rrG" /><phase duration="3" state="rry" /></tlLogic><tlLogic id="3350498747" type="static" programID="0" offset="39"><phase duration="42" state="GGgrrrrGGgg" /><phase duration="3" state="yyyrrrrGyyy" /><phase duration="2" state="rrrrrrrrrrr" /><phase duration="42" state="rrrGGGgGrrr" /><phase duration="3" state="rrryyyyGrrr" /></tlLogic><tlLogic id="3567807957" type="static" programID="0" offset="6"><phase duration="42" state="GGrr" /><phase duration="3" state="yyrr" /><phase duration="2" state="rrrr" /><phase duration="42" state="rrGG" /><phase duration="3" state="rryy" /></tlLogic><tlLogic id="3584752508" type="static" programID="0" offset="22"><phase duration="42" state="GGrr" /><phase duration="3" state="yyrr" /><phase duration="2" state="rrrr" /><phase duration="42" state="rrGG" /><phase duration="3" state="rryy" /></tlLogic><tlLogic id="3630219668" type="static" programID="0" offset="17"><phase duration="42" state="Gr" /><phase duration="3" state="yr" /><phase duration="2" state="rr" /><phase duration="42" state="rG" /><phase duration="3" state="ry" /></tlLogic><tlLogic id="3786901738" type="static" programID="0" offset="1"><phase duration="42" state="GGrrr" /><phase duration="3" state="yyrrr" /><phase duration="2" state="rrrrr" /><phase duration="42" state="rrGGG" /><phase duration="3" state="rryyy" /></tlLogic><tlLogic id="4012724171" type="static" programID="0" offset="33"><phase duration="42" state="GGGGGrrr" /><phase duration="3" state="yyyyyrrr" /><phase duration="2" state="rrrrrrrr" /><phase duration="42" state="rrrrrGGG" /><phase duration="3" state="rrrrryyy" /></tlLogic><tlLogic id="4121409402" type="static" programID="0" offset="0"><phase duration="42" state="GgGgrr" /><phase duration="3" state="yyyyrr" /><phase duration="2" state="rrrrrr" /><phase duration="42" state="rrrrGG" /><phase duration="3" state="rrrryy" /></tlLogic><tlLogic id="4149936235" type="static" programID="0" offset="17"><phase duration="42" state="GGGGrrr" /><phase duration="3" state="yyyyrrr" /><phase duration="2" state="rrrrrrr" /><phase duration="42" state="rrrrGGG" /><phase duration="3" state="rrrryyy" /></tlLogic><tlLogic id="42421889" type="static" programID="0" offset="6"><phase duration="42" state="GGrrrr" /><phase duration="3" state="yyrrrr" /><phase duration="2" state="rrrrrr" /><phase duration="42" state="rrGGGG" /><phase duration="3" state="rryyyy" /></tlLogic><tlLogic id="42422026" type="static" programID="0" offset="25"><phase duration="42" state="GggrrrGGg" /><phase duration="3" state="yyyrrrGyy" /><phase duration="2" state="rrrrrrrrr" /><phase duration="42" state="rrrGGgGrr" /><phase duration="3" state="rrryyyGrr" /></tlLogic><tlLogic id="42422035" type="static" programID="0" offset="2"><phase duration="42" state="GGGGgGrrrr" /><phase duration="3" state="yyyyyGrrrr" /><phase duration="2" state="rrrrrrrrrr" /><phase duration="42" state="rrrrrGGGGG" /><phase duration="3" state="rrrrrGyyyy" /></tlLogic><tlLogic id="42422038" type="static" programID="0" offset="23"><phase duration="42" state="GgGrr" /><phase duration="3" state="yyGrr" /><phase duration="2" state="rrrrr" /><phase duration="42" state="rrGGG" /><phase duration="3" state="rrGyy" /></tlLogic><tlLogic id="42422042" type="static" programID="0" offset="12"><phase duration="42" state="GGGGrrrr" /><phase duration="3" state="Gyyyrrrr" /><phase duration="2" state="rrrrrrrr" /><phase duration="42" state="GrrrGGGg" /><phase duration="3" state="Grrryyyy" /></tlLogic><tlLogic id="42424408" type="static" programID="0" offset="28"><phase duration="42" state="GGGGGGgrrrrrr" /><phase duration="3" state="yyyyyyyrrrrrr" /><phase duration="2" state="rrrrrrrrrrrrr" /><phase duration="42" state="rrrrrrrGGGGGG" /><phase duration="3" state="rrrrrrryyyyyy" /></tlLogic><tlLogic id="42424610" type="static" programID="0" offset="6"><phase duration="42" state="rrrrGGGGGGG" /><phase duration="3" state="rrrrGyyyyyy" /><phase duration="2" state="rrrrrrrrrrr" /><phase duration="41" state="GGGGGrrrrrr" /><phase duration="3" state="yyyyyrrrrrr" /><phase duration="1" state="rrrrrrrrrrr" /></tlLogic><tlLogic id="42424864" type="static" programID="0" offset="16"><phase duration="42" state="GGr" /><phase duration="3" state="yyr" /><phase duration="2" state="rrr" /><phase duration="42" state="rrG" /><phase duration="3" state="rry" /></tlLogic><tlLogic id="42425955" type="static" programID="0" offset="31"><phase duration="82" state="GGgGGgg" /><phase duration="3" state="yyyyyyy" /><phase duration="5" state="rrrrrrr" /></tlLogic><tlLogic id="42426747" type="static" programID="0" offset="13"><phase duration="42" state="GGGgrrrGgg" /><phase duration="3" state="yyyyrrryyy" /><phase duration="2" state="rrrrrrrrrr" /><phase duration="42" state="rrrrGGGrrr" /><phase duration="3" state="rrrryyyrrr" /></tlLogic><tlLogic id="42427242" type="static" programID="0" offset="34"><phase duration="42" state="GgGgrr" /><phase duration="3" state="yyyyrr" /><phase duration="2" state="rrrrrr" /><phase duration="42" state="rrrrGG" /><phase duration="3" state="rrrryy" /></tlLogic><tlLogic id="42427290" type="static" programID="0" offset="0"><phase duration="42" state="Grr" /><phase duration="3" state="yrr" /><phase duration="2" state="rrr" /><phase duration="42" state="rGG" /><phase duration="3" state="ryy" /></tlLogic><tlLogic id="42427300" type="static" programID="0" offset="39"><phase duration="38" state="GGgrrrGgg" /><phase duration="3" state="yyyrrrGgg" /><phase duration="2" state="rrrrrrrrr" /><phase duration="6" state="rrrrrrGGG" /><phase duration="3" state="rrrrrryyy" /><phase duration="2" state="rrrrrrrrr" /><phase duration="37" state="rrrGGGrrr" /><phase duration="3" state="rrryyyrrr" /></tlLogic><tlLogic id="42427305" type="static" programID="0" offset="29"><phase duration="42" state="GGrr" /><phase duration="3" state="yyrr" /><phase duration="2" state="rrrr" /><phase duration="42" state="rrGG" /><phase duration="3" state="rryy" /></tlLogic><tlLogic id="42427346" type="static" programID="0" offset="29"><phase duration="82" state="GGG" /><phase duration="3" state="yyy" /><phase duration="5" state="rrr" /></tlLogic><tlLogic id="42427352" type="static" programID="0" offset="28"><phase duration="42" state="GgrrGg" /><phase duration="3" state="yyrryy" /><phase duration="2" state="rrrrrr" /><phase duration="42" state="rrGGrr" /><phase duration="3" state="rryyrr" /></tlLogic><tlLogic id="42427374" type="static" programID="0" offset="32"><phase duration="42" state="GGGGrr" /><phase duration="3" state="yyyyrr" /><phase duration="2" state="rrrrrr" /><phase duration="42" state="rrrrGG" /><phase duration="3" state="rrrryy" /></tlLogic><tlLogic id="42427381" type="static" programID="0" offset="21"><phase duration="42" state="GGGGrrr" /><phase duration="3" state="yyyyrrr" /><phase duration="2" state="rrrrrrr" /><phase duration="42" state="rrrrGGG" /><phase duration="3" state="rrrryyy" /></tlLogic><tlLogic id="42427423" type="static" programID="0" offset="34"><phase duration="42" state="GGGGGrrr" /><phase duration="3" state="yyyyyrrr" /><phase duration="2" state="rrrrrrrr" /><phase duration="42" state="rrrrrGGG" /><phase duration="3" state="rrrrryyy" /></tlLogic><tlLogic id="42427426" type="static" programID="0" offset="18"><phase duration="42" state="GGGGGrrr" /><phase duration="3" state="yyyyyrrr" /><phase duration="2" state="rrrrrrrr" /><phase duration="42" state="rrrrrGGG" /><phase duration="3" state="rrrrryyy" /></tlLogic><tlLogic id="42427477" type="static" programID="0" offset="38"><phase duration="42" state="GGGGGrrr" /><phase duration="3" state="yyyyyrrr" /><phase duration="2" state="rrrrrrrr" /><phase duration="42" state="rrrrrGGG" /><phase duration="3" state="rrrrryyy" /></tlLogic><tlLogic id="42427483" type="static" programID="0" offset="32"><phase duration="42" state="GGGGGGrrrr" /><phase duration="3" state="yyyyyyrrrr" /><phase duration="2" state="rrrrrrrrrr" /><phase duration="42" state="rrrrrrGGGG" /><phase duration="3" state="rrrrrryyyy" /></tlLogic><tlLogic id="42427742" type="static" programID="0" offset="1"><phase duration="42" state="GgrrGg" /><phase duration="3" state="yyrryy" /><phase duration="2" state="rrrrrr" /><phase duration="42" state="rrGGrr" /><phase duration="3" state="rryyrr" /></tlLogic><tlLogic id="42427744" type="static" programID="0" offset="3"><phase duration="42" state="GGggrrrrGGgg" /><phase duration="3" state="yyyyrrrrGyyy" /><phase duration="2" state="rrrrrrrrrrrr" /><phase duration="42" state="rrrrGGGgGrrr" /><phase duration="3" state="rrrryyyyGrrr" /></tlLogic><tlLogic id="42427786" type="static" programID="0" offset="13"><phase duration="42" state="GGrr" /><phase duration="3" state="yyrr" /><phase duration="2" state="rrrr" /><phase duration="42" state="rrGG" /><phase duration="3" state="rryy" /></tlLogic><tlLogic id="42427787" type="static" programID="0" offset="2"><phase duration="42" state="GGrr" /><phase duration="3" state="yyrr" /><phase duration="2" state="rrrr" /><phase duration="42" state="rrGG" /><phase duration="3" state="rryy" /></tlLogic><tlLogic id="42427797" type="static" programID="0" offset="0"><phase duration="42" state="GGGrrrrr" /><phase duration="3" state="yyyrrrrr" /><phase duration="2" state="rrrrrrrr" /><phase duration="42" state="rrrGGGGG" /><phase duration="3" state="rrryyyyy" /></tlLogic><tlLogic id="42427805" type="static" programID="0" offset="36"><phase duration="42" state="GGGGrrr" /><phase duration="3" state="yyyyrrr" /><phase duration="2" state="rrrrrrr" /><phase duration="42" state="rrrrGGG" /><phase duration="3" state="rrrryyy" /></tlLogic><tlLogic id="42427812" type="static" programID="0" offset="3"><phase duration="42" state="GGGrrrrr" /><phase duration="3" state="yyyrrrrr" /><phase duration="2" state="rrrrrrrr" /><phase duration="42" state="rrrGGGGG" /><phase duration="3" state="rrryyyyy" /></tlLogic><tlLogic id="42428170" type="static" programID="0" offset="10"><phase duration="82" state="GG" /><phase duration="3" state="yy" /><phase duration="5" state="rr" /></tlLogic><tlLogic id="42428174" type="static" programID="0" offset="32"><phase duration="82" state="GG" /><phase duration="3" state="yy" /><phase duration="5" state="rr" /></tlLogic><tlLogic id="42428179" type="static" programID="0" offset="39"><phase duration="27" state="Grr" /><phase duration="3" state="yrr" /><phase duration="2" state="rrr" /><phase duration="27" state="rGr" /><phase duration="3" state="ryr" /><phase duration="2" state="rrr" /><phase duration="27" state="rrG" /><phase duration="3" state="rry" /></tlLogic><tlLogic id="42428198" type="static" programID="0" offset="14"><phase duration="42" state="GGrr" /><phase duration="3" state="yyrr" /><phase duration="2" state="rrrr" /><phase duration="42" state="rrGG" /><phase duration="3" state="rryy" /></tlLogic><tlLogic id="42428206" type="static" programID="0" offset="26"><phase duration="42" state="GGGr" /><phase duration="3" state="yyyr" /><phase duration="2" state="rrrr" /><phase duration="42" state="rrrG" /><phase duration="3" state="rrry" /></tlLogic><tlLogic id="42428220" type="static" programID="0" offset="18"><phase duration="42" state="Grr" /><phase duration="3" state="yrr" /><phase duration="2" state="rrr" /><phase duration="42" state="rGG" /><phase duration="3" state="ryy" /></tlLogic><tlLogic id="42428223" type="static" programID="0" offset="36"><phase duration="42" state="GGrr" /><phase duration="3" state="yyrr" /><phase duration="2" state="rrrr" /><phase duration="42" state="rrGG" /><phase duration="3" state="rryy" /></tlLogic><tlLogic id="42428227" type="static" programID="0" offset="10"><phase duration="42" state="GGrr" /><phase duration="3" state="yyrr" /><phase duration="2" state="rrrr" /><phase duration="42" state="rrGG" /><phase duration="3" state="rryy" /></tlLogic><tlLogic id="42428232" type="static" programID="0" offset="12"><phase duration="42" state="GGrr" /><phase duration="3" state="yyrr" /><phase duration="2" state="rrrr" /><phase duration="42" state="rrGG" /><phase duration="3" state="rryy" /></tlLogic><tlLogic id="42428368" type="static" programID="0" offset="28"><phase duration="42" state="GGrr" /><phase duration="3" state="yyrr" /><phase duration="2" state="rrrr" /><phase duration="42" state="rrGG" /><phase duration="3" state="rryy" /></tlLogic><tlLogic id="42428371" type="static" programID="0" offset="18"><phase duration="42" state="GGr" /><phase duration="3" state="yyr" /><phase duration="2" state="rrr" /><phase duration="42" state="rrG" /><phase duration="3" state="rry" /></tlLogic><tlLogic id="42428374" type="static" programID="0" offset="18"><phase duration="42" state="GgGrr" /><phase duration="3" state="yyyrr" /><phase duration="2" state="rrrrr" /><phase duration="42" state="rrrGG" /><phase duration="3" state="rrryy" /></tlLogic><tlLogic id="42428385" type="static" programID="0" offset="16"><phase duration="42" state="GGGGrrr" /><phase duration="3" state="yyyyrrr" /><phase duration="2" state="rrrrrrr" /><phase duration="42" state="rrrrGGG" /><phase duration="3" state="rrrryyy" /></tlLogic><tlLogic id="42428402" type="static" programID="0" offset="10"><phase duration="42" state="GGGGrrr" /><phase duration="3" state="yyyyrrr" /><phase duration="2" state="rrrrrrr" /><phase duration="42" state="rrrrGGG" /><phase duration="3" state="rrrryyy" /></tlLogic><tlLogic id="42428405" type="static" programID="0" offset="20"><phase duration="27" state="rrGGrr" /><phase duration="3" state="rryGrr" /><phase duration="2" state="rrrrrr" /><phase duration="27" state="GGrGrr" /><phase duration="3" state="yyryrr" /><phase duration="2" state="rrrrrr" /><phase duration="27" state="rrrrGG" /><phase duration="3" state="rrrryy" /></tlLogic><tlLogic id="42428408" type="static" programID="0" offset="7"><phase duration="82" state="GGG" /><phase duration="3" state="yyy" /><phase duration="5" state="rrr" /></tlLogic><tlLogic id="42428411" type="static" programID="0" offset="7"><phase duration="42" state="rrrrGggGGg" /><phase duration="3" state="rrrryyyyyy" /><phase duration="2" state="rrrrrrrrrr" /><phase duration="42" state="GGGGrrrrrr" /><phase duration="3" state="yyyyrrrrrr" /></tlLogic><tlLogic id="42428420" type="static" programID="0" offset="30"><phase duration="42" state="GGGrr" /><phase duration="3" state="yyyrr" /><phase duration="2" state="rrrrr" /><phase duration="42" state="rrrGG" /><phase duration="3" state="rrryy" /></tlLogic><tlLogic id="42428425" type="static" programID="0" offset="12"><phase duration="42" state="GGGrr" /><phase duration="3" state="yyyrr" /><phase duration="2" state="rrrrr" /><phase duration="42" state="rrrGG" /><phase duration="3" state="rrryy" /></tlLogic><tlLogic id="42428428" type="static" programID="0" offset="4"><phase duration="42" state="GGGrr" /><phase duration="3" state="yyyrr" /><phase duration="2" state="rrrrr" /><phase duration="42" state="rrrGG" /><phase duration="3" state="rrryy" /></tlLogic><tlLogic id="42428433" type="static" programID="0" offset="1"><phase duration="42" state="rrrrGGggGGGg" /><phase duration="3" state="rrrryyyyyyyy" /><phase duration="2" state="rrrrrrrrrrrr" /><phase duration="42" state="GGGGrrrrrrrr" /><phase duration="3" state="yyyyrrrrrrrr" /></tlLogic><tlLogic id="42428434" type="static" programID="0" offset="7"><phase duration="42" state="GGGGGrrr" /><phase duration="3" state="yyyyyrrr" /><phase duration="2" state="rrrrrrrr" /><phase duration="42" state="rrrrrGGG" /><phase duration="3" state="rrrrryyy" /></tlLogic><tlLogic id="42428436" type="static" programID="0" offset="10"><phase duration="42" state="GGGrr" /><phase duration="3" state="yyyrr" /><phase duration="2" state="rrrrr" /><phase duration="42" state="rrrGG" /><phase duration="3" state="rrryy" /></tlLogic><tlLogic id="42428441" type="static" programID="0" offset="20"><phase duration="42" state="GGGrr" /><phase duration="3" state="yyyrr" /><phase duration="2" state="rrrrr" /><phase duration="42" state="rrrGG" /><phase duration="3" state="rrryy" /></tlLogic><tlLogic id="42428444" type="static" programID="0" offset="9"><phase duration="42" state="GGGrr" /><phase duration="3" state="yyyrr" /><phase duration="2" state="rrrrr" /><phase duration="42" state="rrrGG" /><phase duration="3" state="rrryy" /></tlLogic><tlLogic id="42428454" type="static" programID="0" offset="23"><phase duration="82" state="GGG" /><phase duration="3" state="yyy" /><phase duration="5" state="rrr" /></tlLogic><tlLogic id="42428458" type="static" programID="0" offset="18"><phase duration="42" state="GGGrr" /><phase duration="3" state="yyyrr" /><phase duration="2" state="rrrrr" /><phase duration="42" state="rrrGG" /><phase duration="3" state="rrryy" /></tlLogic><tlLogic id="42428460" type="static" programID="0" offset="9"><phase duration="42" state="GGGrr" /><phase duration="3" state="yyyrr" /><phase duration="2" state="rrrrr" /><phase duration="42" state="rrrGG" /><phase duration="3" state="rrryy" /></tlLogic><tlLogic id="42428464" type="static" programID="0" offset="30"><phase duration="82" state="GGG" /><phase duration="3" state="yyy" /><phase duration="5" state="rrr" /></tlLogic><tlLogic id="42428468" type="static" programID="0" offset="31"><phase duration="42" state="GGr" /><phase duration="3" state="yyr" /><phase duration="2" state="rrr" /><phase duration="42" state="rrG" /><phase duration="3" state="rry" /></tlLogic><tlLogic id="42428471" type="static" programID="0" offset="3"><phase duration="42" state="GGGrr" /><phase duration="3" state="yyyrr" /><phase duration="2" state="rrrrr" /><phase duration="42" state="rrrGG" /><phase duration="3" state="rrryy" /></tlLogic><tlLogic id="42428473" type="static" programID="0" offset="30"><phase duration="42" state="GGGrrr" /><phase duration="3" state="yyyrrr" /><phase duration="2" state="rrrrrr" /><phase duration="42" state="rrrGGG" /><phase duration="3" state="rrryyy" /></tlLogic><tlLogic id="42428476" type="static" programID="0" offset="32"><phase duration="42" state="GGGrr" /><phase duration="3" state="yyyrr" /><phase duration="2" state="rrrrr" /><phase duration="42" state="rrrGG" /><phase duration="3" state="rrryy" /></tlLogic><tlLogic id="42428483" type="static" programID="0" offset="35"><phase duration="82" state="GGG" /><phase duration="3" state="yyy" /><phase duration="5" state="rrr" /></tlLogic><tlLogic id="42428489" type="static" programID="0" offset="30"><phase duration="42" state="GGGrr" /><phase duration="3" state="yyyrr" /><phase duration="2" state="rrrrr" /><phase duration="42" state="rrrGG" /><phase duration="3" state="rrryy" /></tlLogic><tlLogic id="42428491" type="static" programID="0" offset="26"><phase duration="42" state="GGGrr" /><phase duration="3" state="yyyrr" /><phase duration="2" state="rrrrr" /><phase duration="42" state="rrrGG" /><phase duration="3" state="rrryy" /></tlLogic><tlLogic id="42428524" type="static" programID="0" offset="30"><phase duration="82" state="GG" /><phase duration="3" state="yy" /><phase duration="5" state="rr" /></tlLogic><tlLogic id="42428529" type="static" programID="0" offset="36"><phase duration="42" state="Gr" /><phase duration="3" state="yr" /><phase duration="2" state="rr" /><phase duration="42" state="rG" /><phase duration="3" state="ry" /></tlLogic><tlLogic id="42429373" type="static" programID="0" offset="5"><phase duration="42" state="GGGrr" /><phase duration="3" state="yyyrr" /><phase duration="2" state="rrrrr" /><phase duration="42" state="rrrGG" /><phase duration="3" state="rrryy" /></tlLogic><tlLogic id="42429374" type="static" programID="0" offset="37"><phase duration="42" state="GGrrrr" /><phase duration="3" state="yyrrrr" /><phase duration="2" state="rrrrrr" /><phase duration="42" state="rrGGGG" /><phase duration="3" state="rryyyy" /></tlLogic><tlLogic id="42429375" type="static" programID="0" offset="9"><phase duration="42" state="GGGGrrr" /><phase duration="3" state="yyyyrrr" /><phase duration="2" state="rrrrrrr" /><phase duration="42" state="rrrrGGG" /><phase duration="3" state="rrrryyy" /></tlLogic><tlLogic id="42429378" type="static" programID="0" offset="25"><phase duration="42" state="rrGgG" /><phase duration="3" state="rryyy" /><phase duration="2" state="rrrrr" /><phase duration="42" state="GGrrr" /><phase duration="3" state="yyrrr" /></tlLogic><tlLogic id="42429394" type="static" programID="0" offset="0"><phase duration="42" state="GGGrr" /><phase duration="3" state="yyyrr" /><phase duration="2" state="rrrrr" /><phase duration="42" state="rrrGG" /><phase duration="3" state="rrryy" /></tlLogic><tlLogic id="42429562" type="static" programID="0" offset="22"><phase duration="42" state="GGrrrr" /><phase duration="3" state="yyrrrr" /><phase duration="2" state="rrrrrr" /><phase duration="42" state="rrGGGG" /><phase duration="3" state="rryyyy" /></tlLogic><tlLogic id="42429563" type="static" programID="0" offset="38"><phase duration="42" state="GGGrr" /><phase duration="3" state="yyyrr" /><phase duration="2" state="rrrrr" /><phase duration="42" state="rrrGG" /><phase duration="3" state="rrryy" /></tlLogic><tlLogic id="42429565" type="static" programID="0" offset="11"><phase duration="42" state="rrGgGg" /><phase duration="3" state="rryyyy" /><phase duration="2" state="rrrrrr" /><phase duration="42" state="GGrrrr" /><phase duration="3" state="yyrrrr" /></tlLogic><tlLogic id="42429641" type="static" programID="0" offset="38"><phase duration="42" state="GGrr" /><phase duration="3" state="yyrr" /><phase duration="2" state="rrrr" /><phase duration="42" state="rrGG" /><phase duration="3" state="rryy" /></tlLogic><tlLogic id="42429643" type="static" programID="0" offset="16"><phase duration="42" state="GGgrrrGgg" /><phase duration="3" state="yyyrrryyy" /><phase duration="2" state="rrrrrrrrr" /><phase duration="42" state="rrrGGGrrr" /><phase duration="3" state="rrryyyrrr" /></tlLogic><tlLogic id="42429657" type="static" programID="0" offset="25"><phase duration="42" state="GGGGrr" /><phase duration="3" state="yyyyrr" /><phase duration="2" state="rrrrrr" /><phase duration="42" state="rrrrGG" /><phase duration="3" state="rrrryy" /></tlLogic><tlLogic id="42429659" type="static" programID="0" offset="8"><phase duration="42" state="GGrr" /><phase duration="3" state="yyrr" /><phase duration="2" state="rrrr" /><phase duration="42" state="rrGG" /><phase duration="3" state="rryy" /></tlLogic><tlLogic id="42429661" type="static" programID="0" offset="22"><phase duration="42" state="GGGGrr" /><phase duration="3" state="yyyyrr" /><phase duration="2" state="rrrrrr" /><phase duration="42" state="rrrrGG" /><phase duration="3" state="rrrryy" /></tlLogic><tlLogic id="42429662" type="static" programID="0" offset="10"><phase duration="42" state="GGGGrrr" /><phase duration="3" state="yyyyrrr" /><phase duration="2" state="rrrrrrr" /><phase duration="42" state="rrrrGGG" /><phase duration="3" state="rrrryyy" /></tlLogic><tlLogic id="42429663" type="static" programID="0" offset="30"><phase duration="42" state="GGrr" /><phase duration="3" state="yyrr" /><phase duration="2" state="rrrr" /><phase duration="42" state="rrGG" /><phase duration="3" state="rryy" /></tlLogic><tlLogic id="42429664" type="static" programID="0" offset="9"><phase duration="42" state="GGGGGrrr" /><phase duration="3" state="yyyyyrrr" /><phase duration="2" state=